Initialize SIGNATURE TABLE
ST_SET: 1
ST_WAY: 256
ST_TAG_BIT: 16
ST_TAG_MASK: ffff

Initialize PATTERN TABLE
PT_SET: 512
PT_WAY: 4
SIG_DELTA_BIT: 7
C_SIG_BIT: 4
C_DELTA_BIT: 4

Initialize PREFETCH FILTER
FILTER_SET: 1024

*** ChampSim Multicore Out-of-Order Simulator ***

Warmup Instructions: 50000000
Simulation Instructions: 50000000
Number of CPUs: 1
LLC sets: 2048
LLC ways: 16
Off-chip DRAM Size: 4096 MB Channels: 1 Width: 64-bit Data Rate: 3200 MT/s

CPU 0 runs /home/tongjie/ChampSim-master/ipc1_public/client_005.champsimtrace.xz
CPU 0 L1I next line prefetcher
CPU 0 L1D next line prefetcher
Heartbeat CPU 0 instructions: 10000001 cycles: 3292339 heartbeat IPC: 3.03735 cumulative IPC: 3.03735 (Simulation time: 0 hr 0 min 25 sec) 
Heartbeat CPU 0 instructions: 20000002 cycles: 6698019 heartbeat IPC: 2.93627 cumulative IPC: 2.98596 (Simulation time: 0 hr 0 min 50 sec) 
Heartbeat CPU 0 instructions: 30000001 cycles: 10391475 heartbeat IPC: 2.70749 cumulative IPC: 2.88698 (Simulation time: 0 hr 1 min 15 sec) 
Heartbeat CPU 0 instructions: 40000000 cycles: 14069395 heartbeat IPC: 2.71893 cumulative IPC: 2.84305 (Simulation time: 0 hr 1 min 43 sec) 
Heartbeat CPU 0 instructions: 50000001 cycles: 17343198 heartbeat IPC: 3.05455 cumulative IPC: 2.88297 (Simulation time: 0 hr 2 min 6 sec) 

Warmup complete CPU 0 instructions: 50000001 cycles: 17343198 (Simulation time: 0 hr 2 min 6 sec) 

Heartbeat CPU 0 instructions: 60000002 cycles: 25718720 heartbeat IPC: 1.19396 cumulative IPC: 1.19396 (Simulation time: 0 hr 2 min 29 sec) 
Heartbeat CPU 0 instructions: 70000003 cycles: 33389041 heartbeat IPC: 1.30373 cumulative IPC: 1.24643 (Simulation time: 0 hr 2 min 52 sec) 
Heartbeat CPU 0 instructions: 80000001 cycles: 40445509 heartbeat IPC: 1.41714 cumulative IPC: 1.29857 (Simulation time: 0 hr 3 min 15 sec) 
Heartbeat CPU 0 instructions: 90000002 cycles: 50092056 heartbeat IPC: 1.03664 cumulative IPC: 1.22142 (Simulation time: 0 hr 3 min 39 sec) 
Heartbeat CPU 0 instructions: 100000002 cycles: 58151899 heartbeat IPC: 1.24072 cumulative IPC: 1.22523 (Simulation time: 0 hr 3 min 57 sec) 
Finished CPU 0 instructions: 50000001 cycles: 40808701 cumulative IPC: 1.22523 (Simulation time: 0 hr 3 min 57 sec) 

ChampSim completed all CPUs

Region of Interest Statistics

CPU 0 cumulative IPC: 1.22523 instructions: 50000001 cycles: 40808701
L1D TOTAL     ACCESS:   19957418  HIT:   19421259  MISS:     536159
L1D LOAD      ACCESS:    6801219  HIT:    6630180  MISS:     171039
L1D RFO       ACCESS:    6808350  HIT:    6624151  MISS:     184199
L1D PREFETCH  ACCESS:    6347849  HIT:    6166928  MISS:     180921
L1D WRITEBACK ACCESS:          0  HIT:          0  MISS:          0
L1D PREFETCH  REQUESTED:   15785192  ISSUED:   14899217  USEFUL:     133989  USELESS:     235796
L1D AVERAGE MISS LATENCY: 90.9291 cycles
L1I TOTAL     ACCESS:   10079664  HIT:    8978433  MISS:    1101231
L1I LOAD      ACCESS:    9261078  HIT:    8762628  MISS:     498450
L1I RFO       ACCESS:          0  HIT:          0  MISS:          0
L1I PREFETCH  ACCESS:     818586  HIT:     215805  MISS:     602781
L1I WRITEBACK ACCESS:          0  HIT:          0  MISS:          0
L1I PREFETCH  REQUESTED:    3275658  ISSUED:    3275658  USEFUL:     516754  USELESS:     652162
L1I AVERAGE MISS LATENCY: 20.2272 cycles
L2C TOTAL     ACCESS:    2418879  HIT:    1989308  MISS:     429571
L2C LOAD      ACCESS:     572138  HIT:     463255  MISS:     108883
L2C RFO       ACCESS:     180604  HIT:      30634  MISS:     149970
L2C PREFETCH  ACCESS:    1413059  HIT:    1243674  MISS:     169385
L2C WRITEBACK ACCESS:     253078  HIT:     251745  MISS:       1333
L2C PREFETCH  REQUESTED:    3232809  ISSUED:    3230808  USEFUL:      36404  USELESS:     293405
L2C AVERAGE MISS LATENCY: 117.327 cycles
LLC TOTAL     ACCESS:     918121  HIT:     610793  MISS:     307328
LLC LOAD      ACCESS:     108859  HIT:      65639  MISS:      43220
LLC RFO       ACCESS:     149955  HIT:      22992  MISS:     126963
LLC PREFETCH  ACCESS:     457968  HIT:     321695  MISS:     136273
LLC WRITEBACK ACCESS:     201339  HIT:     200467  MISS:        872
LLC PREFETCH  REQUESTED:          0  ISSUED:          0  USEFUL:      58511  USELESS:     186726
LLC AVERAGE MISS LATENCY: 167.171 cycles
Major fault: 0 Minor fault: 6089
CPU 0 L1I next line prefetcher final stats
CPU 0 L1D next line prefetcher final stats

DRAM Statistics
 CHANNEL 0
 RQ ROW_BUFFER_HIT:      99233  ROW_BUFFER_MISS:     207213
 DBUS_CONGESTED:     254048
 WQ ROW_BUFFER_HIT:      50018  ROW_BUFFER_MISS:     134077  FULL:          0

 AVG_CONGESTED_CYCLE: 6

CPU 0 Branch Prediction Accuracy: 97.8666% MPKI: 3.9013 Average ROB Occupancy at Mispredict: 75.27

Branch types
NOT_BRANCH: 40856329 81.7127%
BRANCH_DIRECT_JUMP: 484667 0.969334%
BRANCH_INDIRECT: 85086 0.170172%
BRANCH_CONDITIONAL: 6230887 12.4618%
BRANCH_DIRECT_CALL: 1028917 2.05783%
BRANCH_INDIRECT_CALL: 141825 0.28365%
BRANCH_RETURN: 1171985 2.34397%
BRANCH_OTHER: 0 0%

