Initialize SIGNATURE TABLE
ST_SET: 1
ST_WAY: 256
ST_TAG_BIT: 16
ST_TAG_MASK: ffff

Initialize PATTERN TABLE
PT_SET: 512
PT_WAY: 4
SIG_DELTA_BIT: 7
C_SIG_BIT: 4
C_DELTA_BIT: 4

Initialize PREFETCH FILTER
FILTER_SET: 1024

*** ChampSim Multicore Out-of-Order Simulator ***

Warmup Instructions: 50000000
Simulation Instructions: 50000000
Number of CPUs: 1
LLC sets: 2048
LLC ways: 16
Off-chip DRAM Size: 4096 MB Channels: 1 Width: 64-bit Data Rate: 3200 MT/s

CPU 0 runs /home/tongjie/ChampSim-master/ipc1_public/client_002.champsimtrace.xz
CPU 0 L1I next line prefetcher
CPU 0 L1D next line prefetcher
Heartbeat CPU 0 instructions: 10000000 cycles: 3405088 heartbeat IPC: 2.93678 cumulative IPC: 2.93678 (Simulation time: 0 hr 0 min 22 sec) 
Heartbeat CPU 0 instructions: 20000002 cycles: 6861172 heartbeat IPC: 2.89345 cumulative IPC: 2.91495 (Simulation time: 0 hr 0 min 43 sec) 
Heartbeat CPU 0 instructions: 30000001 cycles: 10294215 heartbeat IPC: 2.91287 cumulative IPC: 2.91426 (Simulation time: 0 hr 1 min 4 sec) 
Heartbeat CPU 0 instructions: 40000002 cycles: 13727414 heartbeat IPC: 2.91274 cumulative IPC: 2.91388 (Simulation time: 0 hr 1 min 25 sec) 
Heartbeat CPU 0 instructions: 50000002 cycles: 17168655 heartbeat IPC: 2.90593 cumulative IPC: 2.91228 (Simulation time: 0 hr 1 min 46 sec) 

Warmup complete CPU 0 instructions: 50000002 cycles: 17168655 (Simulation time: 0 hr 1 min 46 sec) 

Heartbeat CPU 0 instructions: 60000002 cycles: 23625716 heartbeat IPC: 1.54869 cumulative IPC: 1.54869 (Simulation time: 0 hr 2 min 5 sec) 
Heartbeat CPU 0 instructions: 70000001 cycles: 30144797 heartbeat IPC: 1.53396 cumulative IPC: 1.54129 (Simulation time: 0 hr 2 min 25 sec) 
Heartbeat CPU 0 instructions: 80000003 cycles: 36537794 heartbeat IPC: 1.56421 cumulative IPC: 1.54886 (Simulation time: 0 hr 2 min 45 sec) 
Heartbeat CPU 0 instructions: 90000001 cycles: 43481060 heartbeat IPC: 1.44024 cumulative IPC: 1.5202 (Simulation time: 0 hr 3 min 4 sec) 
Heartbeat CPU 0 instructions: 100000003 cycles: 49950677 heartbeat IPC: 1.54569 cumulative IPC: 1.52523 (Simulation time: 0 hr 3 min 28 sec) 
Finished CPU 0 instructions: 50000001 cycles: 32782022 cumulative IPC: 1.52523 (Simulation time: 0 hr 3 min 28 sec) 

ChampSim completed all CPUs

Region of Interest Statistics

CPU 0 cumulative IPC: 1.52523 instructions: 50000001 cycles: 32782022
L1D TOTAL     ACCESS:   19558884  HIT:   19219318  MISS:     339566
L1D LOAD      ACCESS:    6700109  HIT:    6584352  MISS:     115757
L1D RFO       ACCESS:    6427614  HIT:    6338064  MISS:      89550
L1D PREFETCH  ACCESS:    6431161  HIT:    6296902  MISS:     134259
L1D WRITEBACK ACCESS:          0  HIT:          0  MISS:          0
L1D PREFETCH  REQUESTED:   15900762  ISSUED:   15418873  USEFUL:     116667  USELESS:     156006
L1D AVERAGE MISS LATENCY: 49.3933 cycles
L1I TOTAL     ACCESS:   10213025  HIT:    9257012  MISS:     956013
L1I LOAD      ACCESS:    9496794  HIT:    9047918  MISS:     448876
L1I RFO       ACCESS:          0  HIT:          0  MISS:          0
L1I PREFETCH  ACCESS:     716231  HIT:     209094  MISS:     507137
L1I WRITEBACK ACCESS:          0  HIT:          0  MISS:          0
L1I PREFETCH  REQUESTED:    2973112  ISSUED:    2973112  USEFUL:     429447  USELESS:     577870
L1I AVERAGE MISS LATENCY: 18.4856 cycles
L2C TOTAL     ACCESS:    1837532  HIT:    1534943  MISS:     302589
L2C LOAD      ACCESS:     473666  HIT:     391374  MISS:      82292
L2C RFO       ACCESS:      88661  HIT:      20109  MISS:      68552
L2C PREFETCH  ACCESS:    1149693  HIT:     999010  MISS:     150683
L2C WRITEBACK ACCESS:     125512  HIT:     124450  MISS:       1062
L2C PREFETCH  REQUESTED:    2545364  ISSUED:    2541064  USEFUL:      41264  USELESS:     244265
L2C AVERAGE MISS LATENCY: 59.1847 cycles
LLC TOTAL     ACCESS:     613639  HIT:     551229  MISS:      62410
LLC LOAD      ACCESS:      82284  HIT:      76550  MISS:       5734
LLC RFO       ACCESS:      68541  HIT:      39289  MISS:      29252
LLC PREFETCH  ACCESS:     374488  HIT:     347251  MISS:      27237
LLC WRITEBACK ACCESS:      88326  HIT:      88139  MISS:        187
LLC PREFETCH  REQUESTED:          0  ISSUED:          0  USEFUL:      11915  USELESS:      31253
LLC AVERAGE MISS LATENCY: 180.093 cycles
Major fault: 0 Minor fault: 3095
CPU 0 L1I next line prefetcher final stats
CPU 0 L1D next line prefetcher final stats

DRAM Statistics
 CHANNEL 0
 RQ ROW_BUFFER_HIT:      22092  ROW_BUFFER_MISS:      40129
 DBUS_CONGESTED:      47510
 WQ ROW_BUFFER_HIT:       9087  ROW_BUFFER_MISS:      28296  FULL:          0

 AVG_CONGESTED_CYCLE: 6

CPU 0 Branch Prediction Accuracy: 99.2117% MPKI: 1.49752 Average ROB Occupancy at Mispredict: 88.2548

Branch types
NOT_BRANCH: 40501616 81.0032%
BRANCH_DIRECT_JUMP: 517397 1.03479%
BRANCH_INDIRECT: 112348 0.224696%
BRANCH_CONDITIONAL: 6698737 13.3975%
BRANCH_DIRECT_CALL: 960974 1.92195%
BRANCH_INDIRECT_CALL: 123707 0.247414%
BRANCH_RETURN: 1084929 2.16986%
BRANCH_OTHER: 0 0%

