Initialize SIGNATURE TABLE
ST_SET: 1
ST_WAY: 256
ST_TAG_BIT: 16
ST_TAG_MASK: ffff

Initialize PATTERN TABLE
PT_SET: 512
PT_WAY: 4
SIG_DELTA_BIT: 7
C_SIG_BIT: 4
C_DELTA_BIT: 4

Initialize PREFETCH FILTER
FILTER_SET: 1024

*** ChampSim Multicore Out-of-Order Simulator ***

Warmup Instructions: 50000000
Simulation Instructions: 50000000
Number of CPUs: 1
LLC sets: 2048
LLC ways: 16
Off-chip DRAM Size: 4096 MB Channels: 1 Width: 64-bit Data Rate: 3200 MT/s

CPU 0 runs /home/tongjie/ChampSim-master/ipc1_public/client_006.champsimtrace.xz
CPU 0 L1I next line prefetcher
CPU 0 L1D next line prefetcher
Heartbeat CPU 0 instructions: 10000003 cycles: 4267463 heartbeat IPC: 2.34331 cumulative IPC: 2.34331 (Simulation time: 0 hr 0 min 27 sec) 
Heartbeat CPU 0 instructions: 20000000 cycles: 8307580 heartbeat IPC: 2.47518 cumulative IPC: 2.40744 (Simulation time: 0 hr 0 min 52 sec) 
Heartbeat CPU 0 instructions: 30000003 cycles: 11371812 heartbeat IPC: 3.26346 cumulative IPC: 2.6381 (Simulation time: 0 hr 1 min 12 sec) 
Heartbeat CPU 0 instructions: 40000000 cycles: 14717494 heartbeat IPC: 2.98893 cumulative IPC: 2.71785 (Simulation time: 0 hr 1 min 37 sec) 
Heartbeat CPU 0 instructions: 50000003 cycles: 18822311 heartbeat IPC: 2.43616 cumulative IPC: 2.65642 (Simulation time: 0 hr 2 min 2 sec) 

Warmup complete CPU 0 instructions: 50000003 cycles: 18822311 (Simulation time: 0 hr 2 min 2 sec) 

Heartbeat CPU 0 instructions: 60000001 cycles: 27441541 heartbeat IPC: 1.1602 cumulative IPC: 1.1602 (Simulation time: 0 hr 2 min 22 sec) 
Heartbeat CPU 0 instructions: 70000000 cycles: 37326329 heartbeat IPC: 1.01166 cumulative IPC: 1.08085 (Simulation time: 0 hr 2 min 46 sec) 
Heartbeat CPU 0 instructions: 80000003 cycles: 46497198 heartbeat IPC: 1.09041 cumulative IPC: 1.08402 (Simulation time: 0 hr 3 min 5 sec) 
Heartbeat CPU 0 instructions: 90000003 cycles: 54471082 heartbeat IPC: 1.25409 cumulative IPC: 1.12206 (Simulation time: 0 hr 3 min 24 sec) 
Heartbeat CPU 0 instructions: 100000001 cycles: 63543861 heartbeat IPC: 1.1022 cumulative IPC: 1.11803 (Simulation time: 0 hr 3 min 43 sec) 
Finished CPU 0 instructions: 50000002 cycles: 44721551 cumulative IPC: 1.11803 (Simulation time: 0 hr 3 min 43 sec) 

ChampSim completed all CPUs

Region of Interest Statistics

CPU 0 cumulative IPC: 1.11803 instructions: 50000002 cycles: 44721551
L1D TOTAL     ACCESS:   16991287  HIT:   16264404  MISS:     726883
L1D LOAD      ACCESS:    6551457  HIT:    6149017  MISS:     402440
L1D RFO       ACCESS:    4344691  HIT:    4302129  MISS:      42562
L1D PREFETCH  ACCESS:    6095139  HIT:    5813258  MISS:     281881
L1D WRITEBACK ACCESS:          0  HIT:          0  MISS:          0
L1D PREFETCH  REQUESTED:   18736454  ISSUED:   18161574  USEFUL:     418320  USELESS:     547793
L1D AVERAGE MISS LATENCY: 80.3398 cycles
L1I TOTAL     ACCESS:    9070924  HIT:    8003365  MISS:    1067559
L1I LOAD      ACCESS:    8329765  HIT:    7899833  MISS:     429932
L1I RFO       ACCESS:          0  HIT:          0  MISS:          0
L1I PREFETCH  ACCESS:     741159  HIT:     103532  MISS:     637627
L1I WRITEBACK ACCESS:          0  HIT:          0  MISS:          0
L1I PREFETCH  REQUESTED:    3040402  ISSUED:    3040402  USEFUL:     639034  USELESS:     495975
L1I AVERAGE MISS LATENCY: 20.0116 cycles
L2C TOTAL     ACCESS:    2558029  HIT:    1987089  MISS:     570940
L2C LOAD      ACCESS:     684587  HIT:     432706  MISS:     251881
L2C RFO       ACCESS:      42283  HIT:      12034  MISS:      30249
L2C PREFETCH  ACCESS:    1655217  HIT:    1367347  MISS:     287870
L2C WRITEBACK ACCESS:     175942  HIT:     175002  MISS:        940
L2C PREFETCH  REQUESTED:    5730583  ISSUED:    5703266  USEFUL:      29766  USELESS:     586018
L2C AVERAGE MISS LATENCY: 110.771 cycles
LLC TOTAL     ACCESS:    1304721  HIT:     906916  MISS:     397805
LLC LOAD      ACCESS:     242005  HIT:     145139  MISS:      96866
LLC RFO       ACCESS:      30248  HIT:       5500  MISS:      24748
LLC PREFETCH  ACCESS:     897491  HIT:     621851  MISS:     275640
LLC WRITEBACK ACCESS:     134977  HIT:     134426  MISS:        551
LLC PREFETCH  REQUESTED:          0  ISSUED:          0  USEFUL:      65514  USELESS:     404634
LLC AVERAGE MISS LATENCY: 192.45 cycles
Major fault: 0 Minor fault: 10541
CPU 0 L1I next line prefetcher final stats
CPU 0 L1D next line prefetcher final stats

DRAM Statistics
 CHANNEL 0
 RQ ROW_BUFFER_HIT:     106623  ROW_BUFFER_MISS:     290609
 DBUS_CONGESTED:     243886
 WQ ROW_BUFFER_HIT:      20676  ROW_BUFFER_MISS:      94455  FULL:          0

 AVG_CONGESTED_CYCLE: 6

CPU 0 Branch Prediction Accuracy: 98.1683% MPKI: 3.13642 Average ROB Occupancy at Mispredict: 75.8642

Branch types
NOT_BRANCH: 41438057 82.8761%
BRANCH_DIRECT_JUMP: 413829 0.827658%
BRANCH_INDIRECT: 47058 0.094116%
BRANCH_CONDITIONAL: 6843835 13.6877%
BRANCH_DIRECT_CALL: 536885 1.07377%
BRANCH_INDIRECT_CALL: 90642 0.181284%
BRANCH_RETURN: 629329 1.25866%
BRANCH_OTHER: 0 0%

