Initialize SIGNATURE TABLE
ST_SET: 1
ST_WAY: 256
ST_TAG_BIT: 16
ST_TAG_MASK: ffff

Initialize PATTERN TABLE
PT_SET: 512
PT_WAY: 4
SIG_DELTA_BIT: 7
C_SIG_BIT: 4
C_DELTA_BIT: 4

Initialize PREFETCH FILTER
FILTER_SET: 1024

*** ChampSim Multicore Out-of-Order Simulator ***

Warmup Instructions: 50000000
Simulation Instructions: 50000000
Number of CPUs: 1
LLC sets: 2048
LLC ways: 16
Off-chip DRAM Size: 4096 MB Channels: 1 Width: 64-bit Data Rate: 3200 MT/s

CPU 0 runs /home/tongjie/ChampSim-master/ipc1_public/client_003.champsimtrace.xz
CPU 0 L1I next line prefetcher
CPU 0 L1D next line prefetcher
Heartbeat CPU 0 instructions: 10000000 cycles: 3478531 heartbeat IPC: 2.87478 cumulative IPC: 2.87478 (Simulation time: 0 hr 0 min 22 sec) 
Heartbeat CPU 0 instructions: 20000002 cycles: 6932952 heartbeat IPC: 2.89484 cumulative IPC: 2.88477 (Simulation time: 0 hr 0 min 44 sec) 
Heartbeat CPU 0 instructions: 30000003 cycles: 10493992 heartbeat IPC: 2.80817 cumulative IPC: 2.85878 (Simulation time: 0 hr 1 min 6 sec) 
Heartbeat CPU 0 instructions: 40000001 cycles: 14110589 heartbeat IPC: 2.76503 cumulative IPC: 2.83475 (Simulation time: 0 hr 1 min 28 sec) 
Heartbeat CPU 0 instructions: 50000003 cycles: 17655752 heartbeat IPC: 2.82075 cumulative IPC: 2.83194 (Simulation time: 0 hr 1 min 50 sec) 

Warmup complete CPU 0 instructions: 50000003 cycles: 17655752 (Simulation time: 0 hr 1 min 50 sec) 

Heartbeat CPU 0 instructions: 60000002 cycles: 24271753 heartbeat IPC: 1.51149 cumulative IPC: 1.51149 (Simulation time: 0 hr 2 min 10 sec) 
Heartbeat CPU 0 instructions: 70000001 cycles: 30660191 heartbeat IPC: 1.56533 cumulative IPC: 1.53794 (Simulation time: 0 hr 2 min 31 sec) 
Heartbeat CPU 0 instructions: 80000000 cycles: 38115078 heartbeat IPC: 1.3414 cumulative IPC: 1.46632 (Simulation time: 0 hr 2 min 51 sec) 
Heartbeat CPU 0 instructions: 90000000 cycles: 47337684 heartbeat IPC: 1.08429 cumulative IPC: 1.34762 (Simulation time: 0 hr 3 min 8 sec) 
Heartbeat CPU 0 instructions: 100000003 cycles: 58238649 heartbeat IPC: 0.91735 cumulative IPC: 1.23205 (Simulation time: 0 hr 3 min 32 sec) 
Finished CPU 0 instructions: 50000000 cycles: 40582897 cumulative IPC: 1.23205 (Simulation time: 0 hr 3 min 32 sec) 

ChampSim completed all CPUs

Region of Interest Statistics

CPU 0 cumulative IPC: 1.23205 instructions: 50000000 cycles: 40582897
L1D TOTAL     ACCESS:   17925699  HIT:   17429518  MISS:     496181
L1D LOAD      ACCESS:    6175881  HIT:    6050198  MISS:     125683
L1D RFO       ACCESS:    5962109  HIT:    5727887  MISS:     234222
L1D PREFETCH  ACCESS:    5787709  HIT:    5651433  MISS:     136276
L1D WRITEBACK ACCESS:          0  HIT:          0  MISS:          0
L1D PREFETCH  REQUESTED:   15595970  ISSUED:   15285210  USEFUL:     120357  USELESS:     161356
L1D AVERAGE MISS LATENCY: 122.371 cycles
L1I TOTAL     ACCESS:    9982081  HIT:    9239639  MISS:     742442
L1I LOAD      ACCESS:    9420718  HIT:    9078492  MISS:     342226
L1I RFO       ACCESS:          0  HIT:          0  MISS:          0
L1I PREFETCH  ACCESS:     561363  HIT:     161147  MISS:     400216
L1I WRITEBACK ACCESS:          0  HIT:          0  MISS:          0
L1I PREFETCH  REQUESTED:    2698728  ISSUED:    2698728  USEFUL:     425114  USELESS:     526776
L1I AVERAGE MISS LATENCY: 20.5971 cycles
L2C TOTAL     ACCESS:    1864957  HIT:    1442092  MISS:     422865
L2C LOAD      ACCESS:     372863  HIT:     314258  MISS:      58605
L2C RFO       ACCESS:     232165  HIT:      24846  MISS:     207319
L2C PREFETCH  ACCESS:     990634  HIT:     834919  MISS:     155715
L2C WRITEBACK ACCESS:     269295  HIT:     268069  MISS:       1226
L2C PREFETCH  REQUESTED:    2586265  ISSUED:    2584702  USEFUL:      34518  USELESS:     246416
L2C AVERAGE MISS LATENCY: 159.165 cycles
LLC TOTAL     ACCESS:     952637  HIT:     662588  MISS:     290049
LLC LOAD      ACCESS:      58503  HIT:      44319  MISS:      14184
LLC RFO       ACCESS:     207308  HIT:      35558  MISS:     171750
LLC PREFETCH  ACCESS:     461218  HIT:     357457  MISS:     103761
LLC WRITEBACK ACCESS:     225608  HIT:     225254  MISS:        354
LLC PREFETCH  REQUESTED:          0  ISSUED:          0  USEFUL:      27398  USELESS:     126948
LLC AVERAGE MISS LATENCY: 227.977 cycles
Major fault: 0 Minor fault: 5046
CPU 0 L1I next line prefetcher final stats
CPU 0 L1D next line prefetcher final stats

DRAM Statistics
 CHANNEL 0
 RQ ROW_BUFFER_HIT:     101308  ROW_BUFFER_MISS:     188378
 DBUS_CONGESTED:     264898
 WQ ROW_BUFFER_HIT:      58370  ROW_BUFFER_MISS:     121253  FULL:          0

 AVG_CONGESTED_CYCLE: 6

CPU 0 Branch Prediction Accuracy: 98.6631% MPKI: 2.66884 Average ROB Occupancy at Mispredict: 64.2148

Branch types
NOT_BRANCH: 40018761 80.0375%
BRANCH_DIRECT_JUMP: 370861 0.741722%
BRANCH_INDIRECT: 83252 0.166504%
BRANCH_CONDITIONAL: 7877434 15.7549%
BRANCH_DIRECT_CALL: 722314 1.44463%
BRANCH_INDIRECT_CALL: 101901 0.203802%
BRANCH_RETURN: 825355 1.65071%
BRANCH_OTHER: 0 0%

