Initialize SIGNATURE TABLE
ST_SET: 1
ST_WAY: 256
ST_TAG_BIT: 16
ST_TAG_MASK: ffff

Initialize PATTERN TABLE
PT_SET: 512
PT_WAY: 4
SIG_DELTA_BIT: 7
C_SIG_BIT: 4
C_DELTA_BIT: 4

Initialize PREFETCH FILTER
FILTER_SET: 1024

*** ChampSim Multicore Out-of-Order Simulator ***

Warmup Instructions: 50000000
Simulation Instructions: 50000000
Number of CPUs: 1
LLC sets: 2048
LLC ways: 16
Off-chip DRAM Size: 4096 MB Channels: 1 Width: 64-bit Data Rate: 3200 MT/s

CPU 0 runs /home/tongjie/ChampSim-master/ipc1_public/client_004.champsimtrace.xz
CPU 0 L1I next line prefetcher
CPU 0 L1D next line prefetcher
Heartbeat CPU 0 instructions: 10000000 cycles: 3592635 heartbeat IPC: 2.78347 cumulative IPC: 2.78347 (Simulation time: 0 hr 0 min 22 sec) 
Heartbeat CPU 0 instructions: 20000003 cycles: 7057189 heartbeat IPC: 2.88638 cumulative IPC: 2.83399 (Simulation time: 0 hr 0 min 42 sec) 
Heartbeat CPU 0 instructions: 30000000 cycles: 10647920 heartbeat IPC: 2.78495 cumulative IPC: 2.81745 (Simulation time: 0 hr 1 min 2 sec) 
Heartbeat CPU 0 instructions: 40000003 cycles: 14328319 heartbeat IPC: 2.7171 cumulative IPC: 2.79167 (Simulation time: 0 hr 1 min 23 sec) 
Heartbeat CPU 0 instructions: 50000001 cycles: 17846903 heartbeat IPC: 2.84205 cumulative IPC: 2.80161 (Simulation time: 0 hr 1 min 45 sec) 

Warmup complete CPU 0 instructions: 50000001 cycles: 17846903 (Simulation time: 0 hr 1 min 45 sec) 

Heartbeat CPU 0 instructions: 60000002 cycles: 26197472 heartbeat IPC: 1.19752 cumulative IPC: 1.19752 (Simulation time: 0 hr 2 min 3 sec) 
Heartbeat CPU 0 instructions: 70000001 cycles: 34366027 heartbeat IPC: 1.22421 cumulative IPC: 1.21072 (Simulation time: 0 hr 2 min 23 sec) 
Heartbeat CPU 0 instructions: 80000002 cycles: 43588013 heartbeat IPC: 1.08437 cumulative IPC: 1.16545 (Simulation time: 0 hr 2 min 43 sec) 
Heartbeat CPU 0 instructions: 90000000 cycles: 51999506 heartbeat IPC: 1.18885 cumulative IPC: 1.17121 (Simulation time: 0 hr 3 min 3 sec) 
Heartbeat CPU 0 instructions: 100000002 cycles: 60388539 heartbeat IPC: 1.19203 cumulative IPC: 1.17532 (Simulation time: 0 hr 3 min 27 sec) 
Finished CPU 0 instructions: 50000001 cycles: 42541636 cumulative IPC: 1.17532 (Simulation time: 0 hr 3 min 27 sec) 

ChampSim completed all CPUs

Region of Interest Statistics

CPU 0 cumulative IPC: 1.17532 instructions: 50000001 cycles: 42541636
L1D TOTAL     ACCESS:   22243587  HIT:   21354378  MISS:     889209
L1D LOAD      ACCESS:    8850363  HIT:    8455716  MISS:     394647
L1D RFO       ACCESS:    4831411  HIT:    4710187  MISS:     121224
L1D PREFETCH  ACCESS:    8561813  HIT:    8188475  MISS:     373338
L1D WRITEBACK ACCESS:          0  HIT:          0  MISS:          0
L1D PREFETCH  REQUESTED:   19950953  ISSUED:   19514070  USEFUL:     248072  USELESS:     442775
L1D AVERAGE MISS LATENCY: 29.745 cycles
L1I TOTAL     ACCESS:    9983277  HIT:    9148875  MISS:     834402
L1I LOAD      ACCESS:    9385718  HIT:    9019849  MISS:     365869
L1I RFO       ACCESS:          0  HIT:          0  MISS:          0
L1I PREFETCH  ACCESS:     597559  HIT:     129026  MISS:     468533
L1I WRITEBACK ACCESS:          0  HIT:          0  MISS:          0
L1I PREFETCH  REQUESTED:    2599660  ISSUED:    2599660  USEFUL:     443170  USELESS:     538563
L1I AVERAGE MISS LATENCY: 26.0789 cycles
L2C TOTAL     ACCESS:    2600069  HIT:    2271071  MISS:     328998
L2C LOAD      ACCESS:     671319  HIT:     581658  MISS:      89661
L2C RFO       ACCESS:     117269  HIT:      44996  MISS:      72273
L2C PREFETCH  ACCESS:    1589403  HIT:    1423280  MISS:     166123
L2C WRITEBACK ACCESS:     222078  HIT:     221137  MISS:        941
L2C PREFETCH  REQUESTED:    3277704  ISSUED:    3274210  USEFUL:      57658  USELESS:     348625
L2C AVERAGE MISS LATENCY: 81.8223 cycles
LLC TOTAL     ACCESS:     689998  HIT:     548524  MISS:     141474
LLC LOAD      ACCESS:      89641  HIT:      68543  MISS:      21098
LLC RFO       ACCESS:      72271  HIT:      41407  MISS:      30864
LLC PREFETCH  ACCESS:     426066  HIT:     336791  MISS:      89275
LLC WRITEBACK ACCESS:     102020  HIT:     101783  MISS:        237
LLC PREFETCH  REQUESTED:          0  ISSUED:          0  USEFUL:      42474  USELESS:     143284
LLC AVERAGE MISS LATENCY: 175.533 cycles
Major fault: 0 Minor fault: 3984
CPU 0 L1I next line prefetcher final stats
CPU 0 L1D next line prefetcher final stats

DRAM Statistics
 CHANNEL 0
 RQ ROW_BUFFER_HIT:      35896  ROW_BUFFER_MISS:     105314
 DBUS_CONGESTED:      77255
 WQ ROW_BUFFER_HIT:       8454  ROW_BUFFER_MISS:      37448  FULL:          0

 AVG_CONGESTED_CYCLE: 6

CPU 0 Branch Prediction Accuracy: 94.1242% MPKI: 11.6089 Average ROB Occupancy at Mispredict: 49.305

Branch types
NOT_BRANCH: 40121072 80.2421%
BRANCH_DIRECT_JUMP: 644555 1.28911%
BRANCH_INDIRECT: 201946 0.403892%
BRANCH_CONDITIONAL: 7003556 14.0071%
BRANCH_DIRECT_CALL: 564821 1.12964%
BRANCH_INDIRECT_CALL: 445012 0.890024%
BRANCH_RETURN: 1018716 2.03743%
BRANCH_OTHER: 0 0%

