Initialize SIGNATURE TABLE
ST_SET: 1
ST_WAY: 256
ST_TAG_BIT: 16
ST_TAG_MASK: ffff

Initialize PATTERN TABLE
PT_SET: 512
PT_WAY: 4
SIG_DELTA_BIT: 7
C_SIG_BIT: 4
C_DELTA_BIT: 4

Initialize PREFETCH FILTER
FILTER_SET: 1024

*** ChampSim Multicore Out-of-Order Simulator ***

Warmup Instructions: 50000000
Simulation Instructions: 50000000
Number of CPUs: 1
LLC sets: 2048
LLC ways: 16
Off-chip DRAM Size: 4096 MB Channels: 1 Width: 64-bit Data Rate: 3200 MT/s

CPU 0 runs /home/tongjie/ChampSim-master/ipc1_public/server_001.champsimtrace.xz
CPU 0 L1I next line prefetcher
CPU 0 L1D next line prefetcher
Heartbeat CPU 0 instructions: 10000002 cycles: 3155178 heartbeat IPC: 3.16939 cumulative IPC: 3.16939 (Simulation time: 0 hr 0 min 25 sec) 
Heartbeat CPU 0 instructions: 20000000 cycles: 6369512 heartbeat IPC: 3.11106 cumulative IPC: 3.13996 (Simulation time: 0 hr 0 min 53 sec) 
Heartbeat CPU 0 instructions: 30000003 cycles: 9555329 heartbeat IPC: 3.13891 cumulative IPC: 3.13961 (Simulation time: 0 hr 1 min 19 sec) 
Heartbeat CPU 0 instructions: 40000002 cycles: 12762639 heartbeat IPC: 3.11788 cumulative IPC: 3.13415 (Simulation time: 0 hr 1 min 44 sec) 
Heartbeat CPU 0 instructions: 50000003 cycles: 15981221 heartbeat IPC: 3.10696 cumulative IPC: 3.12867 (Simulation time: 0 hr 2 min 11 sec) 

Warmup complete CPU 0 instructions: 50000003 cycles: 15981221 (Simulation time: 0 hr 2 min 11 sec) 

Heartbeat CPU 0 instructions: 60000000 cycles: 23882067 heartbeat IPC: 1.26569 cumulative IPC: 1.26569 (Simulation time: 0 hr 2 min 37 sec) 
Heartbeat CPU 0 instructions: 70000001 cycles: 31357030 heartbeat IPC: 1.3378 cumulative IPC: 1.30074 (Simulation time: 0 hr 3 min 3 sec) 
Heartbeat CPU 0 instructions: 80000002 cycles: 38927232 heartbeat IPC: 1.32097 cumulative IPC: 1.30742 (Simulation time: 0 hr 3 min 27 sec) 
Heartbeat CPU 0 instructions: 90000003 cycles: 46800794 heartbeat IPC: 1.27007 cumulative IPC: 1.29788 (Simulation time: 0 hr 3 min 52 sec) 
Heartbeat CPU 0 instructions: 100000003 cycles: 54250347 heartbeat IPC: 1.34236 cumulative IPC: 1.30654 (Simulation time: 0 hr 4 min 16 sec) 
Finished CPU 0 instructions: 50000000 cycles: 38269126 cumulative IPC: 1.30654 (Simulation time: 0 hr 4 min 16 sec) 

ChampSim completed all CPUs

Region of Interest Statistics

CPU 0 cumulative IPC: 1.30654 instructions: 50000000 cycles: 38269126
L1D TOTAL     ACCESS:   17970442  HIT:   17459126  MISS:     511316
L1D LOAD      ACCESS:    6615712  HIT:    6413411  MISS:     202301
L1D RFO       ACCESS:    5065208  HIT:    4982594  MISS:      82614
L1D PREFETCH  ACCESS:    6289522  HIT:    6063121  MISS:     226401
L1D WRITEBACK ACCESS:          0  HIT:          0  MISS:          0
L1D PREFETCH  REQUESTED:   15433402  ISSUED:   15007514  USEFUL:     319110  USELESS:     178237
L1D AVERAGE MISS LATENCY: 92.9311 cycles
L1I TOTAL     ACCESS:    8750231  HIT:    7892727  MISS:     857504
L1I LOAD      ACCESS:    8123039  HIT:    7704444  MISS:     418595
L1I RFO       ACCESS:          0  HIT:          0  MISS:          0
L1I PREFETCH  ACCESS:     627192  HIT:     188283  MISS:     438909
L1I WRITEBACK ACCESS:          0  HIT:          0  MISS:          0
L1I PREFETCH  REQUESTED:    2716322  ISSUED:    2716322  USEFUL:     561262  USELESS:     370538
L1I AVERAGE MISS LATENCY: 27.1577 cycles
L2C TOTAL     ACCESS:    2118583  HIT:    1606337  MISS:     512246
L2C LOAD      ACCESS:     486689  HIT:     346472  MISS:     140217
L2C RFO       ACCESS:      80983  HIT:      10098  MISS:      70885
L2C PREFETCH  ACCESS:    1343055  HIT:    1042465  MISS:     300590
L2C WRITEBACK ACCESS:     207856  HIT:     207302  MISS:        554
L2C PREFETCH  REQUESTED:    3890105  ISSUED:    3877141  USEFUL:      49534  USELESS:     541204
L2C AVERAGE MISS LATENCY: 114.522 cycles
LLC TOTAL     ACCESS:    1226062  HIT:     877090  MISS:     348972
LLC LOAD      ACCESS:     139930  HIT:      97659  MISS:      42271
LLC RFO       ACCESS:      70880  HIT:       6662  MISS:      64218
LLC PREFETCH  ACCESS:     847138  HIT:     604961  MISS:     242177
LLC WRITEBACK ACCESS:     168114  HIT:     167808  MISS:        306
LLC PREFETCH  REQUESTED:          0  ISSUED:          0  USEFUL:      72171  USELESS:     394285
LLC AVERAGE MISS LATENCY: 212.257 cycles
Major fault: 0 Minor fault: 16708
CPU 0 L1I next line prefetcher final stats
CPU 0 L1D next line prefetcher final stats

DRAM Statistics
 CHANNEL 0
 RQ ROW_BUFFER_HIT:     104523  ROW_BUFFER_MISS:     244103
 DBUS_CONGESTED:     240505
 WQ ROW_BUFFER_HIT:      34106  ROW_BUFFER_MISS:     126586  FULL:          0

 AVG_CONGESTED_CYCLE: 6

CPU 0 Branch Prediction Accuracy: 99.5889% MPKI: 0.70108 Average ROB Occupancy at Mispredict: 91.231

Branch types
NOT_BRANCH: 41473573 82.9471%
BRANCH_DIRECT_JUMP: 347941 0.695882%
BRANCH_INDIRECT: 148212 0.296424%
BRANCH_CONDITIONAL: 6817277 13.6346%
BRANCH_DIRECT_CALL: 570724 1.14145%
BRANCH_INDIRECT_CALL: 25133 0.050266%
BRANCH_RETURN: 617123 1.23425%
BRANCH_OTHER: 0 0%

