Initialize SIGNATURE TABLE
ST_SET: 1
ST_WAY: 256
ST_TAG_BIT: 16
ST_TAG_MASK: ffff

Initialize PATTERN TABLE
PT_SET: 512
PT_WAY: 4
SIG_DELTA_BIT: 7
C_SIG_BIT: 4
C_DELTA_BIT: 4

Initialize PREFETCH FILTER
FILTER_SET: 1024

*** ChampSim Multicore Out-of-Order Simulator ***

Warmup Instructions: 50000000
Simulation Instructions: 50000000
Number of CPUs: 1
LLC sets: 2048
LLC ways: 16
Off-chip DRAM Size: 4096 MB Channels: 1 Width: 64-bit Data Rate: 3200 MT/s

CPU 0 runs /home/tongjie/ChampSim-master/ipc1_public/server_009.champsimtrace.xz
CPU 0 L1I next line prefetcher
CPU 0 L1D next line prefetcher
Heartbeat CPU 0 instructions: 10000003 cycles: 3196645 heartbeat IPC: 3.12828 cumulative IPC: 3.12828 (Simulation time: 0 hr 0 min 29 sec) 
Heartbeat CPU 0 instructions: 20000001 cycles: 6386258 heartbeat IPC: 3.13518 cumulative IPC: 3.13172 (Simulation time: 0 hr 0 min 58 sec) 
Heartbeat CPU 0 instructions: 30000002 cycles: 9590983 heartbeat IPC: 3.12039 cumulative IPC: 3.12794 (Simulation time: 0 hr 1 min 24 sec) 
Heartbeat CPU 0 instructions: 40000003 cycles: 12791999 heartbeat IPC: 3.12401 cumulative IPC: 3.12695 (Simulation time: 0 hr 1 min 51 sec) 
Heartbeat CPU 0 instructions: 50000000 cycles: 16049710 heartbeat IPC: 3.06964 cumulative IPC: 3.11532 (Simulation time: 0 hr 2 min 19 sec) 

Warmup complete CPU 0 instructions: 50000004 cycles: 16049711 (Simulation time: 0 hr 2 min 19 sec) 

Heartbeat CPU 0 instructions: 60000002 cycles: 32801205 heartbeat IPC: 0.596962 cumulative IPC: 0.596962 (Simulation time: 0 hr 2 min 56 sec) 
Heartbeat CPU 0 instructions: 70000003 cycles: 54246136 heartbeat IPC: 0.466311 cumulative IPC: 0.523609 (Simulation time: 0 hr 3 min 41 sec) 
Heartbeat CPU 0 instructions: 80000000 cycles: 63027681 heartbeat IPC: 1.13875 cumulative IPC: 0.638597 (Simulation time: 0 hr 4 min 5 sec) 
Heartbeat CPU 0 instructions: 90000001 cycles: 71937316 heartbeat IPC: 1.12238 cumulative IPC: 0.715722 (Simulation time: 0 hr 4 min 29 sec) 
Heartbeat CPU 0 instructions: 100000000 cycles: 80756347 heartbeat IPC: 1.13391 cumulative IPC: 0.772718 (Simulation time: 0 hr 4 min 47 sec) 
Finished CPU 0 instructions: 50000000 cycles: 64706637 cumulative IPC: 0.772718 (Simulation time: 0 hr 4 min 47 sec) 

ChampSim completed all CPUs

Region of Interest Statistics

CPU 0 cumulative IPC: 0.772718 instructions: 50000000 cycles: 64706637
L1D TOTAL     ACCESS:   22166272  HIT:   17585842  MISS:    4580430
L1D LOAD      ACCESS:    8889360  HIT:    6613984  MISS:    2275376
L1D RFO       ACCESS:    4595621  HIT:    4490940  MISS:     104681
L1D PREFETCH  ACCESS:    8681291  HIT:    6480918  MISS:    2200373
L1D WRITEBACK ACCESS:          0  HIT:          0  MISS:          0
L1D PREFETCH  REQUESTED:   17708216  ISSUED:   17470163  USEFUL:     264702  USELESS:    2434285
L1D AVERAGE MISS LATENCY: 20.6209 cycles
L1I TOTAL     ACCESS:   11563539  HIT:   10102947  MISS:    1460592
L1I LOAD      ACCESS:   10631158  HIT:    9911232  MISS:     719926
L1I RFO       ACCESS:          0  HIT:          0  MISS:          0
L1I PREFETCH  ACCESS:     932381  HIT:     191715  MISS:     740666
L1I WRITEBACK ACCESS:          0  HIT:          0  MISS:          0
L1I PREFETCH  REQUESTED:    5456820  ISSUED:    5456820  USEFUL:     938853  USELESS:     802119
L1I AVERAGE MISS LATENCY: 28.5247 cycles
L2C TOTAL     ACCESS:    7809663  HIT:    6609062  MISS:    1200601
L2C LOAD      ACCESS:    2721361  HIT:    2336645  MISS:     384716
L2C RFO       ACCESS:     103662  HIT:      62329  MISS:      41333
L2C PREFETCH  ACCESS:    4727771  HIT:    3954373  MISS:     773398
L2C WRITEBACK ACCESS:     256869  HIT:     255715  MISS:       1154
L2C PREFETCH  REQUESTED:    9944823  ISSUED:    9917624  USEFUL:     107469  USELESS:    1532219
L2C AVERAGE MISS LATENCY: 48.2859 cycles
LLC TOTAL     ACCESS:    2534173  HIT:    2355932  MISS:     178241
LLC LOAD      ACCESS:     384047  HIT:     352834  MISS:      31213
LLC RFO       ACCESS:      41322  HIT:      31520  MISS:       9802
LLC PREFETCH  ACCESS:    1969042  HIT:    1832105  MISS:     136937
LLC WRITEBACK ACCESS:     139762  HIT:     139473  MISS:        289
LLC PREFETCH  REQUESTED:          0  ISSUED:          0  USEFUL:      38110  USELESS:     222991
LLC AVERAGE MISS LATENCY: 168.377 cycles
Major fault: 0 Minor fault: 6365
CPU 0 L1I next line prefetcher final stats
CPU 0 L1D next line prefetcher final stats

DRAM Statistics
 CHANNEL 0
 RQ ROW_BUFFER_HIT:      36581  ROW_BUFFER_MISS:     141355
 DBUS_CONGESTED:      75885
 WQ ROW_BUFFER_HIT:       9929  ROW_BUFFER_MISS:      39887  FULL:          0

 AVG_CONGESTED_CYCLE: 5

CPU 0 Branch Prediction Accuracy: 99.4713% MPKI: 1.11484 Average ROB Occupancy at Mispredict: 84.9585

Branch types
NOT_BRANCH: 39456620 78.9132%
BRANCH_DIRECT_JUMP: 445350 0.8907%
BRANCH_INDIRECT: 131149 0.262298%
BRANCH_CONDITIONAL: 8130198 16.2604%
BRANCH_DIRECT_CALL: 732485 1.46497%
BRANCH_INDIRECT_CALL: 172369 0.344738%
BRANCH_RETURN: 931558 1.86312%
BRANCH_OTHER: 0 0%

