Initialize SIGNATURE TABLE
ST_SET: 1
ST_WAY: 256
ST_TAG_BIT: 16
ST_TAG_MASK: ffff

Initialize PATTERN TABLE
PT_SET: 512
PT_WAY: 4
SIG_DELTA_BIT: 7
C_SIG_BIT: 4
C_DELTA_BIT: 4

Initialize PREFETCH FILTER
FILTER_SET: 1024

*** ChampSim Multicore Out-of-Order Simulator ***

Warmup Instructions: 50000000
Simulation Instructions: 50000000
Number of CPUs: 1
LLC sets: 2048
LLC ways: 16
Off-chip DRAM Size: 4096 MB Channels: 1 Width: 64-bit Data Rate: 3200 MT/s

CPU 0 runs /home/tongjie/ChampSim-master/ipc1_public/server_002.champsimtrace.xz
CPU 0 L1I next line prefetcher
CPU 0 L1D next line prefetcher
Heartbeat CPU 0 instructions: 10000000 cycles: 3581189 heartbeat IPC: 2.79237 cumulative IPC: 2.79237 (Simulation time: 0 hr 0 min 28 sec) 
Heartbeat CPU 0 instructions: 20000002 cycles: 7169978 heartbeat IPC: 2.78646 cumulative IPC: 2.78941 (Simulation time: 0 hr 0 min 58 sec) 
Heartbeat CPU 0 instructions: 30000000 cycles: 10710701 heartbeat IPC: 2.82428 cumulative IPC: 2.80094 (Simulation time: 0 hr 1 min 26 sec) 
Heartbeat CPU 0 instructions: 40000000 cycles: 14260946 heartbeat IPC: 2.81671 cumulative IPC: 2.80486 (Simulation time: 0 hr 1 min 55 sec) 
Heartbeat CPU 0 instructions: 50000001 cycles: 17808717 heartbeat IPC: 2.81867 cumulative IPC: 2.80761 (Simulation time: 0 hr 2 min 25 sec) 

Warmup complete CPU 0 instructions: 50000001 cycles: 17808717 (Simulation time: 0 hr 2 min 25 sec) 

Heartbeat CPU 0 instructions: 60000001 cycles: 24977614 heartbeat IPC: 1.39491 cumulative IPC: 1.39491 (Simulation time: 0 hr 2 min 51 sec) 
Heartbeat CPU 0 instructions: 70000003 cycles: 32142991 heartbeat IPC: 1.3956 cumulative IPC: 1.39526 (Simulation time: 0 hr 3 min 15 sec) 
Heartbeat CPU 0 instructions: 80000003 cycles: 39307983 heartbeat IPC: 1.39567 cumulative IPC: 1.3954 (Simulation time: 0 hr 3 min 39 sec) 
Heartbeat CPU 0 instructions: 90000002 cycles: 46476115 heartbeat IPC: 1.39506 cumulative IPC: 1.39531 (Simulation time: 0 hr 4 min 2 sec) 
Heartbeat CPU 0 instructions: 100000003 cycles: 53638419 heartbeat IPC: 1.3962 cumulative IPC: 1.39549 (Simulation time: 0 hr 4 min 25 sec) 
Finished CPU 0 instructions: 50000002 cycles: 35829702 cumulative IPC: 1.39549 (Simulation time: 0 hr 4 min 25 sec) 

ChampSim completed all CPUs

Region of Interest Statistics

CPU 0 cumulative IPC: 1.39549 instructions: 50000002 cycles: 35829702
L1D TOTAL     ACCESS:   22481031  HIT:   22480221  MISS:        810
L1D LOAD      ACCESS:    7072222  HIT:    7071846  MISS:        376
L1D RFO       ACCESS:    8440003  HIT:    8439889  MISS:        114
L1D PREFETCH  ACCESS:    6968806  HIT:    6968486  MISS:        320
L1D WRITEBACK ACCESS:          0  HIT:          0  MISS:          0
L1D PREFETCH  REQUESTED:   16115500  ISSUED:   15866620  USEFUL:      13645  USELESS:       7964
L1D AVERAGE MISS LATENCY: 35.2358 cycles
L1I TOTAL     ACCESS:   11208039  HIT:    9163116  MISS:    2044923
L1I LOAD      ACCESS:    9537473  HIT:    8576621  MISS:     960852
L1I RFO       ACCESS:          0  HIT:          0  MISS:          0
L1I PREFETCH  ACCESS:    1670566  HIT:     586495  MISS:    1084071
L1I WRITEBACK ACCESS:          0  HIT:          0  MISS:          0
L1I PREFETCH  REQUESTED:    6866966  ISSUED:    6866966  USEFUL:     878756  USELESS:    1247031
L1I AVERAGE MISS LATENCY: 13.7134 cycles
L2C TOTAL     ACCESS:    2592781  HIT:    2592456  MISS:        325
L2C LOAD      ACCESS:     844469  HIT:     844385  MISS:         84
L2C RFO       ACCESS:        113  HIT:        111  MISS:          2
L2C PREFETCH  ACCESS:    1747862  HIT:    1747625  MISS:        237
L2C WRITEBACK ACCESS:        337  HIT:        335  MISS:          2
L2C PREFETCH  REQUESTED:    3108410  ISSUED:    3108106  USEFUL:       1690  USELESS:      25983
L2C AVERAGE MISS LATENCY: 100.797 cycles
LLC TOTAL     ACCESS:     227850  HIT:     227216  MISS:        634
LLC LOAD      ACCESS:         84  HIT:         72  MISS:         12
LLC RFO       ACCESS:          2  HIT:          1  MISS:          1
LLC PREFETCH  ACCESS:     227671  HIT:     227051  MISS:        620
LLC WRITEBACK ACCESS:         93  HIT:         92  MISS:          1
LLC PREFETCH  REQUESTED:          0  ISSUED:          0  USEFUL:       5207  USELESS:      17462
LLC AVERAGE MISS LATENCY: 302.639 cycles
Major fault: 0 Minor fault: 1874
CPU 0 L1I next line prefetcher final stats
CPU 0 L1D next line prefetcher final stats

DRAM Statistics
 CHANNEL 0
 RQ ROW_BUFFER_HIT:        124  ROW_BUFFER_MISS:        509
 DBUS_CONGESTED:        445
 WQ ROW_BUFFER_HIT:         75  ROW_BUFFER_MISS:        351  FULL:          0

 AVG_CONGESTED_CYCLE: 6

CPU 0 Branch Prediction Accuracy: 99.8789% MPKI: 0.20388 Average ROB Occupancy at Mispredict: 52.7832

Branch types
NOT_BRANCH: 41580663 83.1613%
BRANCH_DIRECT_JUMP: 461628 0.923256%
BRANCH_INDIRECT: 0 0%
BRANCH_CONDITIONAL: 5376432 10.7529%
BRANCH_DIRECT_CALL: 1175774 2.35155%
BRANCH_INDIRECT_CALL: 114840 0.22968%
BRANCH_RETURN: 1290622 2.58124%
BRANCH_OTHER: 0 0%

