Initialize SIGNATURE TABLE
ST_SET: 1
ST_WAY: 256
ST_TAG_BIT: 16
ST_TAG_MASK: ffff

Initialize PATTERN TABLE
PT_SET: 512
PT_WAY: 4
SIG_DELTA_BIT: 7
C_SIG_BIT: 4
C_DELTA_BIT: 4

Initialize PREFETCH FILTER
FILTER_SET: 1024

*** ChampSim Multicore Out-of-Order Simulator ***

Warmup Instructions: 50000000
Simulation Instructions: 50000000
Number of CPUs: 1
LLC sets: 2048
LLC ways: 16
Off-chip DRAM Size: 4096 MB Channels: 1 Width: 64-bit Data Rate: 3200 MT/s

CPU 0 runs /home/tongjie/ChampSim-master/ipc1_public/server_010.champsimtrace.xz
CPU 0 L1I next line prefetcher
CPU 0 L1D next line prefetcher
Heartbeat CPU 0 instructions: 10000000 cycles: 3194617 heartbeat IPC: 3.13027 cumulative IPC: 3.13027 (Simulation time: 0 hr 0 min 29 sec) 
Heartbeat CPU 0 instructions: 20000002 cycles: 6386090 heartbeat IPC: 3.13335 cumulative IPC: 3.13181 (Simulation time: 0 hr 0 min 58 sec) 
Heartbeat CPU 0 instructions: 30000001 cycles: 9580645 heartbeat IPC: 3.13033 cumulative IPC: 3.13131 (Simulation time: 0 hr 1 min 24 sec) 
Heartbeat CPU 0 instructions: 40000000 cycles: 12771680 heartbeat IPC: 3.13378 cumulative IPC: 3.13193 (Simulation time: 0 hr 1 min 51 sec) 
Heartbeat CPU 0 instructions: 50000003 cycles: 15968076 heartbeat IPC: 3.12852 cumulative IPC: 3.13125 (Simulation time: 0 hr 2 min 18 sec) 

Warmup complete CPU 0 instructions: 50000003 cycles: 15968076 (Simulation time: 0 hr 2 min 18 sec) 

Heartbeat CPU 0 instructions: 60000001 cycles: 24659218 heartbeat IPC: 1.1506 cumulative IPC: 1.1506 (Simulation time: 0 hr 2 min 44 sec) 
Heartbeat CPU 0 instructions: 70000000 cycles: 33509670 heartbeat IPC: 1.12989 cumulative IPC: 1.14015 (Simulation time: 0 hr 3 min 11 sec) 
Heartbeat CPU 0 instructions: 80000000 cycles: 42452475 heartbeat IPC: 1.11822 cumulative IPC: 1.13274 (Simulation time: 0 hr 3 min 36 sec) 
Heartbeat CPU 0 instructions: 90000002 cycles: 51056509 heartbeat IPC: 1.16225 cumulative IPC: 1.13998 (Simulation time: 0 hr 4 min 1 sec) 
Heartbeat CPU 0 instructions: 100000003 cycles: 72321096 heartbeat IPC: 0.470265 cumulative IPC: 0.887264 (Simulation time: 0 hr 4 min 38 sec) 
Finished CPU 0 instructions: 50000000 cycles: 56353020 cumulative IPC: 0.887264 (Simulation time: 0 hr 4 min 38 sec) 

ChampSim completed all CPUs

Region of Interest Statistics

CPU 0 cumulative IPC: 0.887264 instructions: 50000000 cycles: 56353020
L1D TOTAL     ACCESS:   20516854  HIT:   17290496  MISS:    3226358
L1D LOAD      ACCESS:    8002688  HIT:    6415043  MISS:    1587645
L1D RFO       ACCESS:    4729461  HIT:    4634793  MISS:      94668
L1D PREFETCH  ACCESS:    7784705  HIT:    6240660  MISS:    1544045
L1D WRITEBACK ACCESS:          0  HIT:          0  MISS:          0
L1D PREFETCH  REQUESTED:   16726459  ISSUED:   16491008  USEFUL:     278150  USELESS:    1768459
L1D AVERAGE MISS LATENCY: 23.0805 cycles
L1I TOTAL     ACCESS:   10843830  HIT:    9215493  MISS:    1628337
L1I LOAD      ACCESS:    9806248  HIT:    9002638  MISS:     803610
L1I RFO       ACCESS:          0  HIT:          0  MISS:          0
L1I PREFETCH  ACCESS:    1037582  HIT:     212855  MISS:     824727
L1I WRITEBACK ACCESS:          0  HIT:          0  MISS:          0
L1I PREFETCH  REQUESTED:    5794534  ISSUED:    5794534  USEFUL:     990354  USELESS:     837026
L1I AVERAGE MISS LATENCY: 27.8364 cycles
L2C TOTAL     ACCESS:    6242011  HIT:    4925577  MISS:    1316434
L2C LOAD      ACCESS:    2085666  HIT:    1666085  MISS:     419581
L2C RFO       ACCESS:      93512  HIT:      48295  MISS:      45217
L2C PREFETCH  ACCESS:    3797454  HIT:    2947494  MISS:     849960
L2C WRITEBACK ACCESS:     265379  HIT:     263703  MISS:       1676
L2C PREFETCH  REQUESTED:    8730712  ISSUED:    8705732  USEFUL:     112717  USELESS:    1634407
L2C AVERAGE MISS LATENCY: 46.3741 cycles
LLC TOTAL     ACCESS:    2609306  HIT:    2444486  MISS:     164820
LLC LOAD      ACCESS:     419109  HIT:     390643  MISS:      28466
LLC RFO       ACCESS:      45203  HIT:      35367  MISS:       9836
LLC PREFETCH  ACCESS:    1991888  HIT:    1865651  MISS:     126237
LLC WRITEBACK ACCESS:     153106  HIT:     152825  MISS:        281
LLC PREFETCH  REQUESTED:          0  ISSUED:          0  USEFUL:      32427  USELESS:     199734
LLC AVERAGE MISS LATENCY: 170.6 cycles
Major fault: 0 Minor fault: 5608
CPU 0 L1I next line prefetcher final stats
CPU 0 L1D next line prefetcher final stats

DRAM Statistics
 CHANNEL 0
 RQ ROW_BUFFER_HIT:      27557  ROW_BUFFER_MISS:     136973
 DBUS_CONGESTED:      73125
 WQ ROW_BUFFER_HIT:      10745  ROW_BUFFER_MISS:      46363  FULL:          0

 AVG_CONGESTED_CYCLE: 5

CPU 0 Branch Prediction Accuracy: 99.5528% MPKI: 0.89798 Average ROB Occupancy at Mispredict: 88.3671

Branch types
NOT_BRANCH: 39958787 79.9176%
BRANCH_DIRECT_JUMP: 449946 0.899892%
BRANCH_INDIRECT: 140210 0.28042%
BRANCH_CONDITIONAL: 7679677 15.3594%
BRANCH_DIRECT_CALL: 701578 1.40316%
BRANCH_INDIRECT_CALL: 168971 0.337942%
BRANCH_RETURN: 900560 1.80112%
BRANCH_OTHER: 0 0%

