Initialize SIGNATURE TABLE
ST_SET: 1
ST_WAY: 256
ST_TAG_BIT: 16
ST_TAG_MASK: ffff

Initialize PATTERN TABLE
PT_SET: 512
PT_WAY: 4
SIG_DELTA_BIT: 7
C_SIG_BIT: 4
C_DELTA_BIT: 4

Initialize PREFETCH FILTER
FILTER_SET: 1024

*** ChampSim Multicore Out-of-Order Simulator ***

Warmup Instructions: 50000000
Simulation Instructions: 50000000
Number of CPUs: 1
LLC sets: 2048
LLC ways: 16
Off-chip DRAM Size: 4096 MB Channels: 1 Width: 64-bit Data Rate: 3200 MT/s

CPU 0 runs /home/tongjie/ChampSim-master/ipc1_public/server_019.champsimtrace.xz
CPU 0 L1I next line prefetcher
CPU 0 L1D next line prefetcher
Heartbeat CPU 0 instructions: 10000002 cycles: 3626958 heartbeat IPC: 2.75713 cumulative IPC: 2.75713 (Simulation time: 0 hr 0 min 31 sec) 
Heartbeat CPU 0 instructions: 20000003 cycles: 7255199 heartbeat IPC: 2.75616 cumulative IPC: 2.75664 (Simulation time: 0 hr 1 min 3 sec) 
Heartbeat CPU 0 instructions: 30000002 cycles: 10882349 heartbeat IPC: 2.75699 cumulative IPC: 2.75676 (Simulation time: 0 hr 1 min 35 sec) 
Heartbeat CPU 0 instructions: 40000002 cycles: 14521358 heartbeat IPC: 2.748 cumulative IPC: 2.75456 (Simulation time: 0 hr 2 min 6 sec) 
Heartbeat CPU 0 instructions: 50000001 cycles: 18149046 heartbeat IPC: 2.75658 cumulative IPC: 2.75497 (Simulation time: 0 hr 2 min 38 sec) 

Warmup complete CPU 0 instructions: 50000001 cycles: 18149046 (Simulation time: 0 hr 2 min 38 sec) 

Heartbeat CPU 0 instructions: 60000000 cycles: 38558815 heartbeat IPC: 0.489961 cumulative IPC: 0.489961 (Simulation time: 0 hr 3 min 20 sec) 
Heartbeat CPU 0 instructions: 70000002 cycles: 62288588 heartbeat IPC: 0.421412 cumulative IPC: 0.453108 (Simulation time: 0 hr 4 min 2 sec) 
Heartbeat CPU 0 instructions: 80000002 cycles: 83275786 heartbeat IPC: 0.476481 cumulative IPC: 0.46064 (Simulation time: 0 hr 4 min 42 sec) 
Heartbeat CPU 0 instructions: 90000000 cycles: 101366329 heartbeat IPC: 0.552775 cumulative IPC: 0.480669 (Simulation time: 0 hr 5 min 23 sec) 
Heartbeat CPU 0 instructions: 100000002 cycles: 119430030 heartbeat IPC: 0.553596 cumulative IPC: 0.493676 (Simulation time: 0 hr 6 min 3 sec) 
Finished CPU 0 instructions: 50000001 cycles: 101280984 cumulative IPC: 0.493676 (Simulation time: 0 hr 6 min 3 sec) 

ChampSim completed all CPUs

Region of Interest Statistics

CPU 0 cumulative IPC: 0.493676 instructions: 50000001 cycles: 101280984
L1D TOTAL     ACCESS:   18964293  HIT:   16740632  MISS:    2223661
L1D LOAD      ACCESS:    7294384  HIT:    6547972  MISS:     746412
L1D RFO       ACCESS:    5517419  HIT:    4615470  MISS:     901949
L1D PREFETCH  ACCESS:    6152490  HIT:    5577190  MISS:     575300
L1D WRITEBACK ACCESS:          0  HIT:          0  MISS:          0
L1D PREFETCH  REQUESTED:   16804190  ISSUED:   16423327  USEFUL:     624585  USELESS:     699058
L1D AVERAGE MISS LATENCY: 184.211 cycles
L1I TOTAL     ACCESS:   11927238  HIT:    8505711  MISS:    3421527
L1I LOAD      ACCESS:    9548247  HIT:    7997613  MISS:    1550634
L1I RFO       ACCESS:          0  HIT:          0  MISS:          0
L1I PREFETCH  ACCESS:    2378991  HIT:     508098  MISS:    1870893
L1I WRITEBACK ACCESS:          0  HIT:          0  MISS:          0
L1I PREFETCH  REQUESTED:   11240946  ISSUED:   11240946  USEFUL:    1839002  USELESS:    2041905
L1I AVERAGE MISS LATENCY: 17.091 cycles
L2C TOTAL     ACCESS:    8216979  HIT:    6264644  MISS:    1952335
L2C LOAD      ACCESS:    1766171  HIT:    1378601  MISS:     387570
L2C RFO       ACCESS:     901639  HIT:      16811  MISS:     884828
L2C PREFETCH  ACCESS:    4374467  HIT:    3697624  MISS:     676843
L2C WRITEBACK ACCESS:    1174702  HIT:    1171608  MISS:       3094
L2C PREFETCH  REQUESTED:   11924035  ISSUED:   11893445  USEFUL:      73361  USELESS:    1255060
L2C AVERAGE MISS LATENCY: 213.81 cycles
LLC TOTAL     ACCESS:    4226266  HIT:    2587811  MISS:    1638455
LLC LOAD      ACCESS:     387210  HIT:     207878  MISS:     179332
LLC RFO       ACCESS:     884817  HIT:     115483  MISS:     769334
LLC PREFETCH  ACCESS:    1840112  HIT:    1152541  MISS:     687571
LLC WRITEBACK ACCESS:    1114127  HIT:    1111909  MISS:       2218
LLC PREFETCH  REQUESTED:          0  ISSUED:          0  USEFUL:      89946  USELESS:    1099694
LLC AVERAGE MISS LATENCY: 271.657 cycles
Major fault: 0 Minor fault: 25700
CPU 0 L1I next line prefetcher final stats
CPU 0 L1D next line prefetcher final stats

DRAM Statistics
 CHANNEL 0
 RQ ROW_BUFFER_HIT:     414555  ROW_BUFFER_MISS:    1221469
 DBUS_CONGESTED:    1613338
 WQ ROW_BUFFER_HIT:     248913  ROW_BUFFER_MISS:     692663  FULL:          0

 AVG_CONGESTED_CYCLE: 6

CPU 0 Branch Prediction Accuracy: 99.2186% MPKI: 1.3219 Average ROB Occupancy at Mispredict: 167.467

Branch types
NOT_BRANCH: 41540880 83.0818%
BRANCH_DIRECT_JUMP: 462382 0.924764%
BRANCH_INDIRECT: 45460 0.09092%
BRANCH_CONDITIONAL: 6209271 12.4185%
BRANCH_DIRECT_CALL: 666239 1.33248%
BRANCH_INDIRECT_CALL: 204728 0.409456%
BRANCH_RETURN: 870975 1.74195%
BRANCH_OTHER: 0 0%

