Initialize SIGNATURE TABLE
ST_SET: 1
ST_WAY: 256
ST_TAG_BIT: 16
ST_TAG_MASK: ffff

Initialize PATTERN TABLE
PT_SET: 512
PT_WAY: 4
SIG_DELTA_BIT: 7
C_SIG_BIT: 4
C_DELTA_BIT: 4

Initialize PREFETCH FILTER
FILTER_SET: 1024

*** ChampSim Multicore Out-of-Order Simulator ***

Warmup Instructions: 50000000
Simulation Instructions: 50000000
Number of CPUs: 1
LLC sets: 2048
LLC ways: 16
Off-chip DRAM Size: 4096 MB Channels: 1 Width: 64-bit Data Rate: 3200 MT/s

CPU 0 runs /home/tongjie/ChampSim-master/ipc1_public/server_023.champsimtrace.xz
CPU 0 L1I next line prefetcher
CPU 0 L1D next line prefetcher
Heartbeat CPU 0 instructions: 10000001 cycles: 3505129 heartbeat IPC: 2.85296 cumulative IPC: 2.85296 (Simulation time: 0 hr 0 min 31 sec) 
Heartbeat CPU 0 instructions: 20000000 cycles: 7008946 heartbeat IPC: 2.85403 cumulative IPC: 2.8535 (Simulation time: 0 hr 1 min 2 sec) 
Heartbeat CPU 0 instructions: 30000001 cycles: 10506273 heartbeat IPC: 2.85933 cumulative IPC: 2.85544 (Simulation time: 0 hr 1 min 33 sec) 
Heartbeat CPU 0 instructions: 40000003 cycles: 14009816 heartbeat IPC: 2.85425 cumulative IPC: 2.85514 (Simulation time: 0 hr 2 min 4 sec) 
Heartbeat CPU 0 instructions: 50000001 cycles: 17514575 heartbeat IPC: 2.85326 cumulative IPC: 2.85477 (Simulation time: 0 hr 2 min 35 sec) 

Warmup complete CPU 0 instructions: 50000001 cycles: 17514575 (Simulation time: 0 hr 2 min 35 sec) 

Heartbeat CPU 0 instructions: 60000000 cycles: 26448762 heartbeat IPC: 1.1193 cumulative IPC: 1.1193 (Simulation time: 0 hr 3 min 2 sec) 
Heartbeat CPU 0 instructions: 70000002 cycles: 35505784 heartbeat IPC: 1.10412 cumulative IPC: 1.11165 (Simulation time: 0 hr 3 min 30 sec) 
Heartbeat CPU 0 instructions: 80000000 cycles: 44490467 heartbeat IPC: 1.11301 cumulative IPC: 1.1121 (Simulation time: 0 hr 3 min 58 sec) 
Heartbeat CPU 0 instructions: 90000000 cycles: 53098879 heartbeat IPC: 1.16165 cumulative IPC: 1.12409 (Simulation time: 0 hr 4 min 24 sec) 
Heartbeat CPU 0 instructions: 100000001 cycles: 62118701 heartbeat IPC: 1.10867 cumulative IPC: 1.12097 (Simulation time: 0 hr 4 min 52 sec) 
Finished CPU 0 instructions: 50000000 cycles: 44604126 cumulative IPC: 1.12097 (Simulation time: 0 hr 4 min 52 sec) 

ChampSim completed all CPUs

Region of Interest Statistics

CPU 0 cumulative IPC: 1.12097 instructions: 50000000 cycles: 44604126
L1D TOTAL     ACCESS:   20963046  HIT:   19494445  MISS:    1468601
L1D LOAD      ACCESS:    7626163  HIT:    6970751  MISS:     655412
L1D RFO       ACCESS:    6020089  HIT:    5758340  MISS:     261749
L1D PREFETCH  ACCESS:    7316794  HIT:    6765354  MISS:     551440
L1D WRITEBACK ACCESS:          0  HIT:          0  MISS:          0
L1D PREFETCH  REQUESTED:   17139311  ISSUED:   16855491  USEFUL:     310817  USELESS:     851163
L1D AVERAGE MISS LATENCY: 28.0089 cycles
L1I TOTAL     ACCESS:   11560801  HIT:    7950299  MISS:    3610502
L1I LOAD      ACCESS:    9152372  HIT:    7503276  MISS:    1649096
L1I RFO       ACCESS:          0  HIT:          0  MISS:          0
L1I PREFETCH  ACCESS:    2408429  HIT:     447023  MISS:    1961406
L1I WRITEBACK ACCESS:          0  HIT:          0  MISS:          0
L1I PREFETCH  REQUESTED:   10702192  ISSUED:   10702192  USEFUL:    1762298  USELESS:    2192183
L1I AVERAGE MISS LATENCY: 19.8173 cycles
L2C TOTAL     ACCESS:    6905363  HIT:    5524342  MISS:    1381021
L2C LOAD      ACCESS:    1855666  HIT:    1394186  MISS:     461480
L2C RFO       ACCESS:     259514  HIT:     136881  MISS:     122633
L2C PREFETCH  ACCESS:    4290834  HIT:    3503398  MISS:     787436
L2C WRITEBACK ACCESS:     499349  HIT:     489877  MISS:       9472
L2C PREFETCH  REQUESTED:   11217795  ISSUED:   11096473  USEFUL:     111125  USELESS:    1442629
L2C AVERAGE MISS LATENCY: 38.4382 cycles
LLC TOTAL     ACCESS:    2697452  HIT:    2646809  MISS:      50643
LLC LOAD      ACCESS:     461150  HIT:     454457  MISS:       6693
LLC RFO       ACCESS:     122620  HIT:     104760  MISS:      17860
LLC PREFETCH  ACCESS:    1894492  HIT:    1868488  MISS:      26004
LLC WRITEBACK ACCESS:     219190  HIT:     219104  MISS:         86
LLC PREFETCH  REQUESTED:          0  ISSUED:          0  USEFUL:       6692  USELESS:      38888
LLC AVERAGE MISS LATENCY: 186.636 cycles
Major fault: 0 Minor fault: 2778
CPU 0 L1I next line prefetcher final stats
CPU 0 L1D next line prefetcher final stats

DRAM Statistics
 CHANNEL 0
 RQ ROW_BUFFER_HIT:      15405  ROW_BUFFER_MISS:      35148
 DBUS_CONGESTED:      34347
 WQ ROW_BUFFER_HIT:       2321  ROW_BUFFER_MISS:      19205  FULL:          0

 AVG_CONGESTED_CYCLE: 6

CPU 0 Branch Prediction Accuracy: 99.6798% MPKI: 0.58608 Average ROB Occupancy at Mispredict: 83.1321

Branch types
NOT_BRANCH: 40848125 81.6963%
BRANCH_DIRECT_JUMP: 548368 1.09674%
BRANCH_INDIRECT: 189802 0.379604%
BRANCH_CONDITIONAL: 6372728 12.7455%
BRANCH_DIRECT_CALL: 862206 1.72441%
BRANCH_INDIRECT_CALL: 158147 0.316294%
BRANCH_RETURN: 1020342 2.04068%
BRANCH_OTHER: 0 0%

