Initialize SIGNATURE TABLE
ST_SET: 1
ST_WAY: 256
ST_TAG_BIT: 16
ST_TAG_MASK: ffff

Initialize PATTERN TABLE
PT_SET: 512
PT_WAY: 4
SIG_DELTA_BIT: 7
C_SIG_BIT: 4
C_DELTA_BIT: 4

Initialize PREFETCH FILTER
FILTER_SET: 1024

*** ChampSim Multicore Out-of-Order Simulator ***

Warmup Instructions: 50000000
Simulation Instructions: 50000000
Number of CPUs: 1
LLC sets: 2048
LLC ways: 16
Off-chip DRAM Size: 4096 MB Channels: 1 Width: 64-bit Data Rate: 3200 MT/s

CPU 0 runs /home/tongjie/ChampSim-master/ipc1_public/server_003.champsimtrace.xz
CPU 0 L1I next line prefetcher
CPU 0 L1D next line prefetcher
Heartbeat CPU 0 instructions: 10000002 cycles: 3218658 heartbeat IPC: 3.10689 cumulative IPC: 3.10689 (Simulation time: 0 hr 0 min 26 sec) 
Heartbeat CPU 0 instructions: 20000000 cycles: 6534367 heartbeat IPC: 3.01595 cumulative IPC: 3.06074 (Simulation time: 0 hr 0 min 55 sec) 
Heartbeat CPU 0 instructions: 30000000 cycles: 9739772 heartbeat IPC: 3.11973 cumulative IPC: 3.08015 (Simulation time: 0 hr 1 min 22 sec) 
Heartbeat CPU 0 instructions: 40000001 cycles: 13154055 heartbeat IPC: 2.92887 cumulative IPC: 3.04089 (Simulation time: 0 hr 1 min 50 sec) 
Heartbeat CPU 0 instructions: 50000003 cycles: 16872877 heartbeat IPC: 2.68902 cumulative IPC: 2.96334 (Simulation time: 0 hr 2 min 20 sec) 

Warmup complete CPU 0 instructions: 50000003 cycles: 16872877 (Simulation time: 0 hr 2 min 20 sec) 

Heartbeat CPU 0 instructions: 60000000 cycles: 26409858 heartbeat IPC: 1.04855 cumulative IPC: 1.04855 (Simulation time: 0 hr 2 min 49 sec) 
Heartbeat CPU 0 instructions: 70000003 cycles: 35947640 heartbeat IPC: 1.04846 cumulative IPC: 1.04851 (Simulation time: 0 hr 3 min 14 sec) 
Heartbeat CPU 0 instructions: 80000000 cycles: 47544653 heartbeat IPC: 0.862291 cumulative IPC: 0.978098 (Simulation time: 0 hr 3 min 40 sec) 
Heartbeat CPU 0 instructions: 90000001 cycles: 59330413 heartbeat IPC: 0.848482 cumulative IPC: 0.942118 (Simulation time: 0 hr 4 min 6 sec) 
Heartbeat CPU 0 instructions: 100000001 cycles: 71647103 heartbeat IPC: 0.811906 cumulative IPC: 0.912838 (Simulation time: 0 hr 4 min 30 sec) 
Finished CPU 0 instructions: 50000002 cycles: 54774227 cumulative IPC: 0.912838 (Simulation time: 0 hr 4 min 30 sec) 

ChampSim completed all CPUs

Region of Interest Statistics

CPU 0 cumulative IPC: 0.912838 instructions: 50000002 cycles: 54774227
L1D TOTAL     ACCESS:   20385228  HIT:   19243542  MISS:    1141686
L1D LOAD      ACCESS:    8035614  HIT:    7508368  MISS:     527246
L1D RFO       ACCESS:    4567851  HIT:    4450603  MISS:     117248
L1D PREFETCH  ACCESS:    7781763  HIT:    7284571  MISS:     497192
L1D WRITEBACK ACCESS:          0  HIT:          0  MISS:          0
L1D PREFETCH  REQUESTED:   17986893  ISSUED:   17767544  USEFUL:     328599  USELESS:     691348
L1D AVERAGE MISS LATENCY: 55.5531 cycles
L1I TOTAL     ACCESS:   10123322  HIT:    8841636  MISS:    1281686
L1I LOAD      ACCESS:    9259178  HIT:    8642136  MISS:     617042
L1I RFO       ACCESS:          0  HIT:          0  MISS:          0
L1I PREFETCH  ACCESS:     864144  HIT:     199500  MISS:     664644
L1I WRITEBACK ACCESS:          0  HIT:          0  MISS:          0
L1I PREFETCH  REQUESTED:    4493732  ISSUED:    4493732  USEFUL:     789146  USELESS:     715528
L1I AVERAGE MISS LATENCY: 35.1218 cycles
L2C TOTAL     ACCESS:    3291411  HIT:    2217628  MISS:    1073783
L2C LOAD      ACCESS:     940146  HIT:     575374  MISS:     364772
L2C RFO       ACCESS:     114606  HIT:      39885  MISS:      74721
L2C PREFETCH  ACCESS:    1952356  HIT:    1319115  MISS:     633241
L2C WRITEBACK ACCESS:     284303  HIT:     283254  MISS:       1049
L2C PREFETCH  REQUESTED:    4881368  ISSUED:    4863066  USEFUL:     100148  USELESS:    1203096
L2C AVERAGE MISS LATENCY: 80.1062 cycles
LLC TOTAL     ACCESS:    1870122  HIT:    1450932  MISS:     419190
LLC LOAD      ACCESS:     364291  HIT:     276383  MISS:      87908
LLC RFO       ACCESS:      74715  HIT:      31980  MISS:      42735
LLC PREFETCH  ACCESS:    1263072  HIT:     975838  MISS:     287234
LLC WRITEBACK ACCESS:     168044  HIT:     166731  MISS:       1313
LLC PREFETCH  REQUESTED:          0  ISSUED:          0  USEFUL:      74191  USELESS:     380560
LLC AVERAGE MISS LATENCY: 180.833 cycles
Major fault: 0 Minor fault: 7782
CPU 0 L1I next line prefetcher final stats
CPU 0 L1D next line prefetcher final stats

DRAM Statistics
 CHANNEL 0
 RQ ROW_BUFFER_HIT:      93894  ROW_BUFFER_MISS:     323948
 DBUS_CONGESTED:     213283
 WQ ROW_BUFFER_HIT:      24442  ROW_BUFFER_MISS:      81569  FULL:          0

 AVG_CONGESTED_CYCLE: 5

CPU 0 Branch Prediction Accuracy: 95.439% MPKI: 9.02702 Average ROB Occupancy at Mispredict: 56.7582

Branch types
NOT_BRANCH: 40104086 80.2082%
BRANCH_DIRECT_JUMP: 497928 0.995856%
BRANCH_INDIRECT: 130587 0.261174%
BRANCH_CONDITIONAL: 7219017 14.438%
BRANCH_DIRECT_CALL: 625807 1.25161%
BRANCH_INDIRECT_CALL: 389787 0.779574%
BRANCH_RETURN: 1032747 2.06549%
BRANCH_OTHER: 0 0%

