Initialize SIGNATURE TABLE
ST_SET: 1
ST_WAY: 256
ST_TAG_BIT: 16
ST_TAG_MASK: ffff

Initialize PATTERN TABLE
PT_SET: 512
PT_WAY: 4
SIG_DELTA_BIT: 7
C_SIG_BIT: 4
C_DELTA_BIT: 4

Initialize PREFETCH FILTER
FILTER_SET: 1024

*** ChampSim Multicore Out-of-Order Simulator ***

Warmup Instructions: 50000000
Simulation Instructions: 50000000
Number of CPUs: 1
LLC sets: 2048
LLC ways: 16
Off-chip DRAM Size: 4096 MB Channels: 1 Width: 64-bit Data Rate: 3200 MT/s

CPU 0 runs /home/tongjie/ChampSim-master/ipc1_public/server_021.champsimtrace.xz
CPU 0 L1I next line prefetcher
CPU 0 L1D next line prefetcher
Heartbeat CPU 0 instructions: 10000000 cycles: 3627741 heartbeat IPC: 2.75654 cumulative IPC: 2.75654 (Simulation time: 0 hr 0 min 32 sec) 
Heartbeat CPU 0 instructions: 20000000 cycles: 7250110 heartbeat IPC: 2.76062 cumulative IPC: 2.75858 (Simulation time: 0 hr 1 min 5 sec) 
Heartbeat CPU 0 instructions: 30000003 cycles: 10903136 heartbeat IPC: 2.73746 cumulative IPC: 2.7515 (Simulation time: 0 hr 1 min 37 sec) 
Heartbeat CPU 0 instructions: 40000001 cycles: 14520563 heartbeat IPC: 2.7644 cumulative IPC: 2.75471 (Simulation time: 0 hr 2 min 11 sec) 
Heartbeat CPU 0 instructions: 50000002 cycles: 18159749 heartbeat IPC: 2.74787 cumulative IPC: 2.75334 (Simulation time: 0 hr 2 min 43 sec) 

Warmup complete CPU 0 instructions: 50000002 cycles: 18159749 (Simulation time: 0 hr 2 min 43 sec) 

Heartbeat CPU 0 instructions: 60000001 cycles: 35515459 heartbeat IPC: 0.576179 cumulative IPC: 0.576179 (Simulation time: 0 hr 3 min 24 sec) 
Heartbeat CPU 0 instructions: 70000002 cycles: 52993065 heartbeat IPC: 0.572161 cumulative IPC: 0.574163 (Simulation time: 0 hr 4 min 6 sec) 
Heartbeat CPU 0 instructions: 80000001 cycles: 70289282 heartbeat IPC: 0.578161 cumulative IPC: 0.57549 (Simulation time: 0 hr 4 min 47 sec) 
Heartbeat CPU 0 instructions: 90000001 cycles: 87812677 heartbeat IPC: 0.570666 cumulative IPC: 0.574276 (Simulation time: 0 hr 5 min 22 sec) 
Heartbeat CPU 0 instructions: 100000002 cycles: 105175907 heartbeat IPC: 0.57593 cumulative IPC: 0.574606 (Simulation time: 0 hr 5 min 55 sec) 
Finished CPU 0 instructions: 50000000 cycles: 87016158 cumulative IPC: 0.574606 (Simulation time: 0 hr 5 min 55 sec) 

ChampSim completed all CPUs

Region of Interest Statistics

CPU 0 cumulative IPC: 0.574606 instructions: 50000000 cycles: 87016158
L1D TOTAL     ACCESS:   19473787  HIT:   17270342  MISS:    2203445
L1D LOAD      ACCESS:    7428667  HIT:    6731148  MISS:     697519
L1D RFO       ACCESS:    5889789  HIT:    4914328  MISS:     975461
L1D PREFETCH  ACCESS:    6155331  HIT:    5624866  MISS:     530465
L1D WRITEBACK ACCESS:          0  HIT:          0  MISS:          0
L1D PREFETCH  REQUESTED:   16922387  ISSUED:   16528067  USEFUL:     626764  USELESS:     646116
L1D AVERAGE MISS LATENCY: 178.173 cycles
L1I TOTAL     ACCESS:   12498440  HIT:    8589741  MISS:    3908699
L1I LOAD      ACCESS:    9780102  HIT:    8013165  MISS:    1766937
L1I RFO       ACCESS:          0  HIT:          0  MISS:          0
L1I PREFETCH  ACCESS:    2718338  HIT:     576576  MISS:    2141762
L1I WRITEBACK ACCESS:          0  HIT:          0  MISS:          0
L1I PREFETCH  REQUESTED:   12056976  ISSUED:   12056976  USEFUL:    1957462  USELESS:    2194871
L1I AVERAGE MISS LATENCY: 15.9121 cycles
L2C TOTAL     ACCESS:    8818445  HIT:    6890784  MISS:    1927661
L2C LOAD      ACCESS:    1854872  HIT:    1545517  MISS:     309355
L2C RFO       ACCESS:     975065  HIT:      20702  MISS:     954363
L2C PREFETCH  ACCESS:    4808622  HIT:    4147902  MISS:     660720
L2C WRITEBACK ACCESS:    1179886  HIT:    1176663  MISS:       3223
L2C PREFETCH  REQUESTED:   12297973  ISSUED:   12265519  USEFUL:      70717  USELESS:    1237695
L2C AVERAGE MISS LATENCY: 209.173 cycles
LLC TOTAL     ACCESS:    4135734  HIT:    2702207  MISS:    1433527
LLC LOAD      ACCESS:     309052  HIT:     219081  MISS:      89971
LLC RFO       ACCESS:     954328  HIT:     143430  MISS:     810898
LLC PREFETCH  ACCESS:    1755716  HIT:    1225211  MISS:     530505
LLC WRITEBACK ACCESS:    1116638  HIT:    1114485  MISS:       2153
LLC PREFETCH  REQUESTED:          0  ISSUED:          0  USEFUL:      66957  USELESS:     969490
LLC AVERAGE MISS LATENCY: 287.122 cycles
Major fault: 0 Minor fault: 22298
CPU 0 L1I next line prefetcher final stats
CPU 0 L1D next line prefetcher final stats

DRAM Statistics
 CHANNEL 0
 RQ ROW_BUFFER_HIT:     420357  ROW_BUFFER_MISS:    1010705
 DBUS_CONGESTED:    1470936
 WQ ROW_BUFFER_HIT:     244890  ROW_BUFFER_MISS:     658885  FULL:          0

 AVG_CONGESTED_CYCLE: 6

CPU 0 Branch Prediction Accuracy: 99.8303% MPKI: 0.27836 Average ROB Occupancy at Mispredict: 185.893

Branch types
NOT_BRANCH: 41798545 83.5971%
BRANCH_DIRECT_JUMP: 445216 0.890432%
BRANCH_INDIRECT: 50481 0.100962%
BRANCH_CONDITIONAL: 5868245 11.7365%
BRANCH_DIRECT_CALL: 758228 1.51646%
BRANCH_INDIRECT_CALL: 160494 0.320988%
BRANCH_RETURN: 918718 1.83744%
BRANCH_OTHER: 0 0%

