Initialize SIGNATURE TABLE
ST_SET: 1
ST_WAY: 256
ST_TAG_BIT: 16
ST_TAG_MASK: ffff

Initialize PATTERN TABLE
PT_SET: 512
PT_WAY: 4
SIG_DELTA_BIT: 7
C_SIG_BIT: 4
C_DELTA_BIT: 4

Initialize PREFETCH FILTER
FILTER_SET: 1024

*** ChampSim Multicore Out-of-Order Simulator ***

Warmup Instructions: 50000000
Simulation Instructions: 50000000
Number of CPUs: 1
LLC sets: 2048
LLC ways: 16
Off-chip DRAM Size: 4096 MB Channels: 1 Width: 64-bit Data Rate: 3200 MT/s

CPU 0 runs /home/tongjie/ChampSim-master/ipc1_public/server_025.champsimtrace.xz
CPU 0 L1I next line prefetcher
CPU 0 L1D next line prefetcher
Heartbeat CPU 0 instructions: 10000003 cycles: 3533704 heartbeat IPC: 2.82989 cumulative IPC: 2.82989 (Simulation time: 0 hr 0 min 31 sec) 
Heartbeat CPU 0 instructions: 20000000 cycles: 7074286 heartbeat IPC: 2.82439 cumulative IPC: 2.82714 (Simulation time: 0 hr 1 min 2 sec) 
Heartbeat CPU 0 instructions: 30000001 cycles: 10606819 heartbeat IPC: 2.83083 cumulative IPC: 2.82837 (Simulation time: 0 hr 1 min 33 sec) 
Heartbeat CPU 0 instructions: 40000003 cycles: 14145732 heartbeat IPC: 2.82573 cumulative IPC: 2.82771 (Simulation time: 0 hr 2 min 5 sec) 
Heartbeat CPU 0 instructions: 50000001 cycles: 17682413 heartbeat IPC: 2.82751 cumulative IPC: 2.82767 (Simulation time: 0 hr 2 min 36 sec) 

Warmup complete CPU 0 instructions: 50000001 cycles: 17682413 (Simulation time: 0 hr 2 min 36 sec) 

Heartbeat CPU 0 instructions: 60000003 cycles: 27016387 heartbeat IPC: 1.07136 cumulative IPC: 1.07136 (Simulation time: 0 hr 3 min 5 sec) 
Heartbeat CPU 0 instructions: 70000000 cycles: 36461306 heartbeat IPC: 1.05877 cumulative IPC: 1.06503 (Simulation time: 0 hr 3 min 33 sec) 
Heartbeat CPU 0 instructions: 80000000 cycles: 45803862 heartbeat IPC: 1.07037 cumulative IPC: 1.0668 (Simulation time: 0 hr 4 min 2 sec) 
Heartbeat CPU 0 instructions: 90000001 cycles: 54237346 heartbeat IPC: 1.18575 cumulative IPC: 1.09424 (Simulation time: 0 hr 4 min 31 sec) 
Heartbeat CPU 0 instructions: 100000000 cycles: 61869267 heartbeat IPC: 1.31029 cumulative IPC: 1.13156 (Simulation time: 0 hr 5 min 1 sec) 
Finished CPU 0 instructions: 50000003 cycles: 44186855 cumulative IPC: 1.13156 (Simulation time: 0 hr 5 min 1 sec) 

ChampSim completed all CPUs

Region of Interest Statistics

CPU 0 cumulative IPC: 1.13156 instructions: 50000003 cycles: 44186855
L1D TOTAL     ACCESS:   21577534  HIT:   20150649  MISS:    1426885
L1D LOAD      ACCESS:    7728084  HIT:    7115782  MISS:     612302
L1D RFO       ACCESS:    6420722  HIT:    6171337  MISS:     249385
L1D PREFETCH  ACCESS:    7428728  HIT:    6863530  MISS:     565198
L1D WRITEBACK ACCESS:          0  HIT:          0  MISS:          0
L1D PREFETCH  REQUESTED:   17291617  ISSUED:   16958689  USEFUL:     316917  USELESS:     915940
L1D AVERAGE MISS LATENCY: 26.701 cycles
L1I TOTAL     ACCESS:   11585355  HIT:    7941053  MISS:    3644302
L1I LOAD      ACCESS:    9161374  HIT:    7477711  MISS:    1683663
L1I RFO       ACCESS:          0  HIT:          0  MISS:          0
L1I PREFETCH  ACCESS:    2423981  HIT:     463342  MISS:    1960639
L1I WRITEBACK ACCESS:          0  HIT:          0  MISS:          0
L1I PREFETCH  REQUESTED:   11307110  ISSUED:   11307110  USEFUL:    1837604  USELESS:    2312728
L1I AVERAGE MISS LATENCY: 20.237 cycles
L2C TOTAL     ACCESS:    6911246  HIT:    5477195  MISS:    1434051
L2C LOAD      ACCESS:    1856934  HIT:    1383002  MISS:     473932
L2C RFO       ACCESS:     247119  HIT:     129797  MISS:     117322
L2C PREFETCH  ACCESS:    4310420  HIT:    3477082  MISS:     833338
L2C WRITEBACK ACCESS:     496773  HIT:     487314  MISS:       9459
L2C PREFETCH  REQUESTED:   11018453  ISSUED:   10978862  USEFUL:     109107  USELESS:    1627374
L2C AVERAGE MISS LATENCY: 36.4818 cycles
LLC TOTAL     ACCESS:    2762101  HIT:    2731410  MISS:      30691
LLC LOAD      ACCESS:     473728  HIT:     470031  MISS:       3697
LLC RFO       ACCESS:     117314  HIT:     106586  MISS:      10728
LLC PREFETCH  ACCESS:    1963334  HIT:    1947166  MISS:      16168
LLC WRITEBACK ACCESS:     207725  HIT:     207627  MISS:         98
LLC PREFETCH  REQUESTED:          0  ISSUED:          0  USEFUL:       4274  USELESS:      21657
LLC AVERAGE MISS LATENCY: 184.554 cycles
Major fault: 0 Minor fault: 2468
CPU 0 L1I next line prefetcher final stats
CPU 0 L1D next line prefetcher final stats

DRAM Statistics
 CHANNEL 0
 RQ ROW_BUFFER_HIT:       9466  ROW_BUFFER_MISS:      21121
 DBUS_CONGESTED:      20598
 WQ ROW_BUFFER_HIT:       1357  ROW_BUFFER_MISS:      12635  FULL:          0

 AVG_CONGESTED_CYCLE: 6

CPU 0 Branch Prediction Accuracy: 99.8142% MPKI: 0.34676 Average ROB Occupancy at Mispredict: 112.377

Branch types
NOT_BRANCH: 40668668 81.3373%
BRANCH_DIRECT_JUMP: 531697 1.06339%
BRANCH_INDIRECT: 199023 0.398046%
BRANCH_CONDITIONAL: 6211453 12.4229%
BRANCH_DIRECT_CALL: 1010905 2.02181%
BRANCH_INDIRECT_CALL: 183501 0.367002%
BRANCH_RETURN: 1194406 2.38881%
BRANCH_OTHER: 0 0%

