Initialize SIGNATURE TABLE
ST_SET: 1
ST_WAY: 256
ST_TAG_BIT: 16
ST_TAG_MASK: ffff

Initialize PATTERN TABLE
PT_SET: 512
PT_WAY: 4
SIG_DELTA_BIT: 7
C_SIG_BIT: 4
C_DELTA_BIT: 4

Initialize PREFETCH FILTER
FILTER_SET: 1024

*** ChampSim Multicore Out-of-Order Simulator ***

Warmup Instructions: 50000000
Simulation Instructions: 50000000
Number of CPUs: 1
LLC sets: 2048
LLC ways: 16
Off-chip DRAM Size: 4096 MB Channels: 1 Width: 64-bit Data Rate: 3200 MT/s

CPU 0 runs /home/tongjie/ChampSim-master/ipc1_public/server_018.champsimtrace.xz
CPU 0 L1I next line prefetcher
CPU 0 L1D next line prefetcher
Heartbeat CPU 0 instructions: 10000003 cycles: 3620566 heartbeat IPC: 2.762 cumulative IPC: 2.762 (Simulation time: 0 hr 0 min 30 sec) 
Heartbeat CPU 0 instructions: 20000001 cycles: 7245682 heartbeat IPC: 2.75853 cumulative IPC: 2.76026 (Simulation time: 0 hr 1 min 1 sec) 
Heartbeat CPU 0 instructions: 30000003 cycles: 10723788 heartbeat IPC: 2.87513 cumulative IPC: 2.79752 (Simulation time: 0 hr 1 min 31 sec) 
Heartbeat CPU 0 instructions: 40000000 cycles: 14238783 heartbeat IPC: 2.84495 cumulative IPC: 2.80923 (Simulation time: 0 hr 2 min 1 sec) 
Heartbeat CPU 0 instructions: 50000003 cycles: 17859747 heartbeat IPC: 2.7617 cumulative IPC: 2.79959 (Simulation time: 0 hr 2 min 33 sec) 

Warmup complete CPU 0 instructions: 50000003 cycles: 17859747 (Simulation time: 0 hr 2 min 33 sec) 

Heartbeat CPU 0 instructions: 60000000 cycles: 35897239 heartbeat IPC: 0.554401 cumulative IPC: 0.554401 (Simulation time: 0 hr 3 min 13 sec) 
Heartbeat CPU 0 instructions: 70000001 cycles: 53964148 heartbeat IPC: 0.553498 cumulative IPC: 0.553949 (Simulation time: 0 hr 3 min 53 sec) 
Heartbeat CPU 0 instructions: 80000000 cycles: 71935994 heartbeat IPC: 0.556426 cumulative IPC: 0.554772 (Simulation time: 0 hr 4 min 33 sec) 
Heartbeat CPU 0 instructions: 90000002 cycles: 89926407 heartbeat IPC: 0.555852 cumulative IPC: 0.555042 (Simulation time: 0 hr 5 min 14 sec) 
Heartbeat CPU 0 instructions: 100000001 cycles: 108010413 heartbeat IPC: 0.552975 cumulative IPC: 0.554627 (Simulation time: 0 hr 5 min 55 sec) 
Finished CPU 0 instructions: 50000002 cycles: 90150667 cumulative IPC: 0.554627 (Simulation time: 0 hr 5 min 55 sec) 

ChampSim completed all CPUs

Region of Interest Statistics

CPU 0 cumulative IPC: 0.554627 instructions: 50000002 cycles: 90150667
L1D TOTAL     ACCESS:   19338015  HIT:   17120242  MISS:    2217773
L1D LOAD      ACCESS:    7392169  HIT:    6673111  MISS:     719058
L1D RFO       ACCESS:    5810519  HIT:    4858342  MISS:     952177
L1D PREFETCH  ACCESS:    6135327  HIT:    5588789  MISS:     546538
L1D WRITEBACK ACCESS:          0  HIT:          0  MISS:          0
L1D PREFETCH  REQUESTED:   16661985  ISSUED:   16286496  USEFUL:     595330  USELESS:     709477
L1D AVERAGE MISS LATENCY: 174.397 cycles
L1I TOTAL     ACCESS:   12411895  HIT:    8589030  MISS:    3822865
L1I LOAD      ACCESS:    9751064  HIT:    8020861  MISS:    1730203
L1I RFO       ACCESS:          0  HIT:          0  MISS:          0
L1I PREFETCH  ACCESS:    2660831  HIT:     568169  MISS:    2092662
L1I WRITEBACK ACCESS:          0  HIT:          0  MISS:          0
L1I PREFETCH  REQUESTED:   11253648  ISSUED:   11253648  USEFUL:    1842188  USELESS:    2017040
L1I AVERAGE MISS LATENCY: 16.2649 cycles
L2C TOTAL     ACCESS:    8742133  HIT:    6818109  MISS:    1924024
L2C LOAD      ACCESS:    1853332  HIT:    1530627  MISS:     322705
L2C RFO       ACCESS:     951812  HIT:      18202  MISS:     933610
L2C PREFETCH  ACCESS:    4766938  HIT:    4102142  MISS:     664796
L2C WRITEBACK ACCESS:    1170051  HIT:    1167138  MISS:       2913
L2C PREFETCH  REQUESTED:   11796587  ISSUED:   11768669  USEFUL:      74133  USELESS:    1255353
L2C AVERAGE MISS LATENCY: 205.914 cycles
LLC TOTAL     ACCESS:    4120019  HIT:    2639331  MISS:    1480688
LLC LOAD      ACCESS:     322339  HIT:     211036  MISS:     111303
LLC RFO       ACCESS:     933602  HIT:     135967  MISS:     797635
LLC PREFETCH  ACCESS:    1759438  HIT:    1189776  MISS:     569662
LLC WRITEBACK ACCESS:    1104640  HIT:    1102552  MISS:       2088
LLC PREFETCH  REQUESTED:          0  ISSUED:          0  USEFUL:      90823  USELESS:    1081323
LLC AVERAGE MISS LATENCY: 276.87 cycles
Major fault: 0 Minor fault: 22451
CPU 0 L1I next line prefetcher final stats
CPU 0 L1D next line prefetcher final stats

DRAM Statistics
 CHANNEL 0
 RQ ROW_BUFFER_HIT:     425698  ROW_BUFFER_MISS:    1052575
 DBUS_CONGESTED:    1482145
 WQ ROW_BUFFER_HIT:     243245  ROW_BUFFER_MISS:     660668  FULL:          0

 AVG_CONGESTED_CYCLE: 6

CPU 0 Branch Prediction Accuracy: 99.7114% MPKI: 0.47678 Average ROB Occupancy at Mispredict: 185.169

Branch types
NOT_BRANCH: 41741008 83.482%
BRANCH_DIRECT_JUMP: 458652 0.917304%
BRANCH_INDIRECT: 48282 0.096564%
BRANCH_CONDITIONAL: 5930881 11.8618%
BRANCH_DIRECT_CALL: 744230 1.48846%
BRANCH_INDIRECT_CALL: 166336 0.332672%
BRANCH_RETURN: 910589 1.82118%
BRANCH_OTHER: 0 0%

