Initialize SIGNATURE TABLE
ST_SET: 1
ST_WAY: 256
ST_TAG_BIT: 16
ST_TAG_MASK: ffff

Initialize PATTERN TABLE
PT_SET: 512
PT_WAY: 4
SIG_DELTA_BIT: 7
C_SIG_BIT: 4
C_DELTA_BIT: 4

Initialize PREFETCH FILTER
FILTER_SET: 1024

*** ChampSim Multicore Out-of-Order Simulator ***

Warmup Instructions: 50000000
Simulation Instructions: 50000000
Number of CPUs: 1
LLC sets: 2048
LLC ways: 16
Off-chip DRAM Size: 4096 MB Channels: 1 Width: 64-bit Data Rate: 3200 MT/s

CPU 0 runs /home/tongjie/ChampSim-master/ipc1_public/server_034.champsimtrace.xz
CPU 0 L1I next line prefetcher
CPU 0 L1D next line prefetcher
Heartbeat CPU 0 instructions: 10000000 cycles: 3333795 heartbeat IPC: 2.99958 cumulative IPC: 2.99958 (Simulation time: 0 hr 0 min 32 sec) 
Heartbeat CPU 0 instructions: 20000002 cycles: 6660370 heartbeat IPC: 3.0061 cumulative IPC: 3.00284 (Simulation time: 0 hr 1 min 3 sec) 
Heartbeat CPU 0 instructions: 30000003 cycles: 9995233 heartbeat IPC: 2.99862 cumulative IPC: 3.00143 (Simulation time: 0 hr 1 min 36 sec) 
Heartbeat CPU 0 instructions: 40000001 cycles: 13328021 heartbeat IPC: 3.00049 cumulative IPC: 3.0012 (Simulation time: 0 hr 2 min 7 sec) 
Heartbeat CPU 0 instructions: 50000000 cycles: 16660130 heartbeat IPC: 3.0011 cumulative IPC: 3.00118 (Simulation time: 0 hr 2 min 38 sec) 

Warmup complete CPU 0 instructions: 50000002 cycles: 16660131 (Simulation time: 0 hr 2 min 38 sec) 

Heartbeat CPU 0 instructions: 60000002 cycles: 24486232 heartbeat IPC: 1.27778 cumulative IPC: 1.27778 (Simulation time: 0 hr 3 min 5 sec) 
Heartbeat CPU 0 instructions: 70000003 cycles: 32571148 heartbeat IPC: 1.23687 cumulative IPC: 1.25699 (Simulation time: 0 hr 3 min 32 sec) 
Heartbeat CPU 0 instructions: 80000002 cycles: 40402671 heartbeat IPC: 1.27689 cumulative IPC: 1.26355 (Simulation time: 0 hr 4 min 0 sec) 
Heartbeat CPU 0 instructions: 90000002 cycles: 48233364 heartbeat IPC: 1.27703 cumulative IPC: 1.2669 (Simulation time: 0 hr 4 min 27 sec) 
Heartbeat CPU 0 instructions: 100000002 cycles: 56090377 heartbeat IPC: 1.27275 cumulative IPC: 1.26806 (Simulation time: 0 hr 4 min 52 sec) 
Finished CPU 0 instructions: 50000000 cycles: 39430246 cumulative IPC: 1.26806 (Simulation time: 0 hr 4 min 52 sec) 

ChampSim completed all CPUs

Region of Interest Statistics

CPU 0 cumulative IPC: 1.26806 instructions: 50000000 cycles: 39430246
L1D TOTAL     ACCESS:   20026201  HIT:   18601250  MISS:    1424951
L1D LOAD      ACCESS:    6984993  HIT:    6331992  MISS:     653001
L1D RFO       ACCESS:    6216734  HIT:    6072661  MISS:     144073
L1D PREFETCH  ACCESS:    6824474  HIT:    6196597  MISS:     627877
L1D WRITEBACK ACCESS:          0  HIT:          0  MISS:          0
L1D PREFETCH  REQUESTED:   15631059  ISSUED:   15411019  USEFUL:     289829  USELESS:     968175
L1D AVERAGE MISS LATENCY: 18.2068 cycles
L1I TOTAL     ACCESS:   12599036  HIT:    7709531  MISS:    4889505
L1I LOAD      ACCESS:    9246481  HIT:    7108543  MISS:    2137938
L1I RFO       ACCESS:          0  HIT:          0  MISS:          0
L1I PREFETCH  ACCESS:    3352555  HIT:     600988  MISS:    2751567
L1I WRITEBACK ACCESS:          0  HIT:          0  MISS:          0
L1I PREFETCH  REQUESTED:   14680096  ISSUED:   14680096  USEFUL:    2440943  USELESS:    2887269
L1I AVERAGE MISS LATENCY: 13.8248 cycles
L2C TOTAL     ACCESS:    8839253  HIT:    8635244  MISS:     204009
L2C LOAD      ACCESS:    2373191  HIT:    2292068  MISS:      81123
L2C RFO       ACCESS:     142201  HIT:     130303  MISS:      11898
L2C PREFETCH  ACCESS:    5972783  HIT:    5863901  MISS:     108882
L2C WRITEBACK ACCESS:     351078  HIT:     348972  MISS:       2106
L2C PREFETCH  REQUESTED:   14186997  ISSUED:   14128978  USEFUL:      16429  USELESS:     199867
L2C AVERAGE MISS LATENCY: 37.1705 cycles
LLC TOTAL     ACCESS:    1660697  HIT:    1646398  MISS:      14299
LLC LOAD      ACCESS:      81014  HIT:      78025  MISS:       2989
LLC RFO       ACCESS:      11895  HIT:      11710  MISS:        185
LLC PREFETCH  ACCESS:    1515193  HIT:    1504102  MISS:      11091
LLC WRITEBACK ACCESS:      52595  HIT:      52561  MISS:         34
LLC PREFETCH  REQUESTED:          0  ISSUED:          0  USEFUL:       8623  USELESS:       6273
LLC AVERAGE MISS LATENCY: 154.117 cycles
Major fault: 0 Minor fault: 1173
CPU 0 L1I next line prefetcher final stats
CPU 0 L1D next line prefetcher final stats

DRAM Statistics
 CHANNEL 0
 RQ ROW_BUFFER_HIT:       3606  ROW_BUFFER_MISS:      10656
 DBUS_CONGESTED:       6620
 WQ ROW_BUFFER_HIT:       1132  ROW_BUFFER_MISS:       3109  FULL:          0

 AVG_CONGESTED_CYCLE: 5

CPU 0 Branch Prediction Accuracy: 99.926% MPKI: 0.14472 Average ROB Occupancy at Mispredict: 162.163

Branch types
NOT_BRANCH: 40220868 80.4417%
BRANCH_DIRECT_JUMP: 771318 1.54264%
BRANCH_INDIRECT: 108662 0.217324%
BRANCH_CONDITIONAL: 6375023 12.75%
BRANCH_DIRECT_CALL: 1049632 2.09926%
BRANCH_INDIRECT_CALL: 212280 0.42456%
BRANCH_RETURN: 1261922 2.52384%
BRANCH_OTHER: 0 0%

