Initialize SIGNATURE TABLE
ST_SET: 1
ST_WAY: 256
ST_TAG_BIT: 16
ST_TAG_MASK: ffff

Initialize PATTERN TABLE
PT_SET: 512
PT_WAY: 4
SIG_DELTA_BIT: 7
C_SIG_BIT: 4
C_DELTA_BIT: 4

Initialize PREFETCH FILTER
FILTER_SET: 1024

*** ChampSim Multicore Out-of-Order Simulator ***

Warmup Instructions: 50000000
Simulation Instructions: 50000000
Number of CPUs: 1
LLC sets: 2048
LLC ways: 16
Off-chip DRAM Size: 4096 MB Channels: 1 Width: 64-bit Data Rate: 3200 MT/s

CPU 0 runs /home/tongjie/ChampSim-master/ipc1_public/server_038.champsimtrace.xz
CPU 0 L1I next line prefetcher
CPU 0 L1D next line prefetcher
Heartbeat CPU 0 instructions: 10000001 cycles: 3324241 heartbeat IPC: 3.00821 cumulative IPC: 3.00821 (Simulation time: 0 hr 0 min 28 sec) 
Heartbeat CPU 0 instructions: 20000003 cycles: 6651441 heartbeat IPC: 3.00553 cumulative IPC: 3.00687 (Simulation time: 0 hr 0 min 57 sec) 
Heartbeat CPU 0 instructions: 30000003 cycles: 9974704 heartbeat IPC: 3.00909 cumulative IPC: 3.00761 (Simulation time: 0 hr 1 min 25 sec) 
Heartbeat CPU 0 instructions: 40000001 cycles: 13302331 heartbeat IPC: 3.00514 cumulative IPC: 3.00699 (Simulation time: 0 hr 1 min 54 sec) 
Heartbeat CPU 0 instructions: 50000001 cycles: 16628249 heartbeat IPC: 3.00669 cumulative IPC: 3.00693 (Simulation time: 0 hr 2 min 19 sec) 

Warmup complete CPU 0 instructions: 50000001 cycles: 16628249 (Simulation time: 0 hr 2 min 19 sec) 

Heartbeat CPU 0 instructions: 60000001 cycles: 24962540 heartbeat IPC: 1.19986 cumulative IPC: 1.19986 (Simulation time: 0 hr 2 min 39 sec) 
Heartbeat CPU 0 instructions: 70000001 cycles: 33271172 heartbeat IPC: 1.20357 cumulative IPC: 1.20171 (Simulation time: 0 hr 2 min 59 sec) 
Heartbeat CPU 0 instructions: 80000000 cycles: 41590065 heartbeat IPC: 1.20208 cumulative IPC: 1.20184 (Simulation time: 0 hr 3 min 19 sec) 
Heartbeat CPU 0 instructions: 90000001 cycles: 49915925 heartbeat IPC: 1.20108 cumulative IPC: 1.20165 (Simulation time: 0 hr 3 min 39 sec) 
*** Reached end of trace for Core: 0 Repeating trace: /home/tongjie/ChampSim-master/ipc1_public/server_038.champsimtrace.xz
Heartbeat CPU 0 instructions: 100000001 cycles: 58256520 heartbeat IPC: 1.19896 cumulative IPC: 1.20111 (Simulation time: 0 hr 3 min 58 sec) 
Finished CPU 0 instructions: 50000000 cycles: 41628271 cumulative IPC: 1.20111 (Simulation time: 0 hr 3 min 58 sec) 

ChampSim completed all CPUs

Region of Interest Statistics

CPU 0 cumulative IPC: 1.20111 instructions: 50000000 cycles: 41628271
L1D TOTAL     ACCESS:   20706918  HIT:   19722976  MISS:     983942
L1D LOAD      ACCESS:    7310299  HIT:    6820372  MISS:     489927
L1D RFO       ACCESS:    6262546  HIT:    6196142  MISS:      66404
L1D PREFETCH  ACCESS:    7134073  HIT:    6706462  MISS:     427611
L1D WRITEBACK ACCESS:          0  HIT:          0  MISS:          0
L1D PREFETCH  REQUESTED:   16425168  ISSUED:   16064370  USEFUL:     240235  USELESS:     620483
L1D AVERAGE MISS LATENCY: 29.667 cycles
L1I TOTAL     ACCESS:   13046285  HIT:    7113492  MISS:    5932793
L1I LOAD      ACCESS:    9034516  HIT:    6445683  MISS:    2588833
L1I RFO       ACCESS:          0  HIT:          0  MISS:          0
L1I PREFETCH  ACCESS:    4011769  HIT:     667809  MISS:    3343960
L1I WRITEBACK ACCESS:          0  HIT:          0  MISS:          0
L1I PREFETCH  REQUESTED:   17397706  ISSUED:   17397706  USEFUL:    3059773  USELESS:    3347980
L1I AVERAGE MISS LATENCY: 13.4311 cycles
L2C TOTAL     ACCESS:    9731825  HIT:    9382085  MISS:     349740
L2C LOAD      ACCESS:    2536621  HIT:    2379964  MISS:     156657
L2C RFO       ACCESS:      66170  HIT:      37528  MISS:      28642
L2C PREFETCH  ACCESS:    6836423  HIT:    6673650  MISS:     162773
L2C WRITEBACK ACCESS:     292611  HIT:     290943  MISS:       1668
L2C PREFETCH  REQUESTED:   15035604  ISSUED:   15007107  USEFUL:      14884  USELESS:     299485
L2C AVERAGE MISS LATENCY: 43.5428 cycles
LLC TOTAL     ACCESS:    1445426  HIT:    1396686  MISS:      48740
LLC LOAD      ACCESS:     156580  HIT:     144046  MISS:      12534
LLC RFO       ACCESS:      28631  HIT:      24138  MISS:       4493
LLC PREFETCH  ACCESS:    1104720  HIT:    1073410  MISS:      31310
LLC WRITEBACK ACCESS:     155495  HIT:     155092  MISS:        403
LLC PREFETCH  REQUESTED:          0  ISSUED:          0  USEFUL:       6699  USELESS:      43856
LLC AVERAGE MISS LATENCY: 164.422 cycles
Major fault: 0 Minor fault: 5532
CPU 0 L1I next line prefetcher final stats
CPU 0 L1D next line prefetcher final stats

DRAM Statistics
 CHANNEL 0
 RQ ROW_BUFFER_HIT:       7708  ROW_BUFFER_MISS:      40626
 DBUS_CONGESTED:      19643
 WQ ROW_BUFFER_HIT:       1091  ROW_BUFFER_MISS:      10707  FULL:          0

 AVG_CONGESTED_CYCLE: 4

CPU 0 Branch Prediction Accuracy: 99.9279% MPKI: 0.12968 Average ROB Occupancy at Mispredict: 44.9349

Branch types
NOT_BRANCH: 41006089 82.0122%
BRANCH_DIRECT_JUMP: 541911 1.08382%
BRANCH_INDIRECT: 59690 0.11938%
BRANCH_CONDITIONAL: 5915821 11.8316%
BRANCH_DIRECT_CALL: 1003582 2.00716%
BRANCH_INDIRECT_CALL: 234499 0.468998%
BRANCH_RETURN: 1238061 2.47612%
BRANCH_OTHER: 0 0%

