Initialize SIGNATURE TABLE
ST_SET: 1
ST_WAY: 256
ST_TAG_BIT: 16
ST_TAG_MASK: ffff

Initialize PATTERN TABLE
PT_SET: 512
PT_WAY: 4
SIG_DELTA_BIT: 7
C_SIG_BIT: 4
C_DELTA_BIT: 4

Initialize PREFETCH FILTER
FILTER_SET: 1024

*** ChampSim Multicore Out-of-Order Simulator ***

Warmup Instructions: 50000000
Simulation Instructions: 50000000
Number of CPUs: 1
LLC sets: 2048
LLC ways: 16
Off-chip DRAM Size: 4096 MB Channels: 1 Width: 64-bit Data Rate: 3200 MT/s

CPU 0 runs /home/tongjie/ChampSim-master/ipc1_public/spec_x264_001.champsimtrace.xz
CPU 0 L1I next line prefetcher
CPU 0 L1D next line prefetcher
Heartbeat CPU 0 instructions: 10000002 cycles: 3059697 heartbeat IPC: 3.2683 cumulative IPC: 3.2683 (Simulation time: 0 hr 0 min 16 sec) 
Heartbeat CPU 0 instructions: 20000002 cycles: 6109734 heartbeat IPC: 3.27865 cumulative IPC: 3.27347 (Simulation time: 0 hr 0 min 31 sec) 
Heartbeat CPU 0 instructions: 30000002 cycles: 9145334 heartbeat IPC: 3.29424 cumulative IPC: 3.28036 (Simulation time: 0 hr 0 min 47 sec) 
Heartbeat CPU 0 instructions: 40000000 cycles: 12189599 heartbeat IPC: 3.28486 cumulative IPC: 3.28149 (Simulation time: 0 hr 1 min 2 sec) 
Heartbeat CPU 0 instructions: 50000000 cycles: 15232451 heartbeat IPC: 3.28639 cumulative IPC: 3.28247 (Simulation time: 0 hr 1 min 18 sec) 

Warmup complete CPU 0 instructions: 50000004 cycles: 15232452 (Simulation time: 0 hr 1 min 18 sec) 

Heartbeat CPU 0 instructions: 60000001 cycles: 21385708 heartbeat IPC: 1.62516 cumulative IPC: 1.62516 (Simulation time: 0 hr 1 min 29 sec) 
Heartbeat CPU 0 instructions: 70000000 cycles: 27523863 heartbeat IPC: 1.62915 cumulative IPC: 1.62715 (Simulation time: 0 hr 1 min 40 sec) 
Heartbeat CPU 0 instructions: 80000003 cycles: 33811923 heartbeat IPC: 1.59032 cumulative IPC: 1.61469 (Simulation time: 0 hr 1 min 51 sec) 
Heartbeat CPU 0 instructions: 90000002 cycles: 40078437 heartbeat IPC: 1.59578 cumulative IPC: 1.60992 (Simulation time: 0 hr 2 min 2 sec) 
Heartbeat CPU 0 instructions: 100000002 cycles: 46206363 heartbeat IPC: 1.63187 cumulative IPC: 1.61426 (Simulation time: 0 hr 2 min 13 sec) 
Finished CPU 0 instructions: 50000002 cycles: 30973912 cumulative IPC: 1.61426 (Simulation time: 0 hr 2 min 13 sec) 

ChampSim completed all CPUs

Region of Interest Statistics

CPU 0 cumulative IPC: 1.61426 instructions: 50000002 cycles: 30973912
L1D TOTAL     ACCESS:   13092198  HIT:   12929695  MISS:     162503
L1D LOAD      ACCESS:    5151357  HIT:    5096305  MISS:      55052
L1D RFO       ACCESS:    2884760  HIT:    2850294  MISS:      34466
L1D PREFETCH  ACCESS:    5056081  HIT:    4983096  MISS:      72985
L1D WRITEBACK ACCESS:          0  HIT:          0  MISS:          0
L1D PREFETCH  REQUESTED:   12548182  ISSUED:   12362831  USEFUL:      54049  USELESS:      94098
L1D AVERAGE MISS LATENCY: 39.3005 cycles
L1I TOTAL     ACCESS:    8273807  HIT:    7897511  MISS:     376296
L1I LOAD      ACCESS:    7996534  HIT:    7838804  MISS:     157730
L1I RFO       ACCESS:          0  HIT:          0  MISS:          0
L1I PREFETCH  ACCESS:     277273  HIT:      58707  MISS:     218566
L1I WRITEBACK ACCESS:          0  HIT:          0  MISS:          0
L1I PREFETCH  REQUESTED:    1113294  ISSUED:    1113294  USEFUL:     268856  USELESS:     158093
L1I AVERAGE MISS LATENCY: 13.841 cycles
L2C TOTAL     ACCESS:     842842  HIT:     802863  MISS:      39979
L2C LOAD      ACCESS:     188872  HIT:     182736  MISS:       6136
L2C RFO       ACCESS:      34350  HIT:      22280  MISS:      12070
L2C PREFETCH  ACCESS:     576224  HIT:     554554  MISS:      21670
L2C WRITEBACK ACCESS:      43396  HIT:      43293  MISS:        103
L2C PREFETCH  REQUESTED:    1211115  ISSUED:    1209391  USEFUL:      18996  USELESS:      25542
L2C AVERAGE MISS LATENCY: 100.657 cycles
LLC TOTAL     ACCESS:     137507  HIT:     108210  MISS:      29297
LLC LOAD      ACCESS:       6133  HIT:       4007  MISS:       2126
LLC RFO       ACCESS:      12070  HIT:        465  MISS:      11605
LLC PREFETCH  ACCESS:     105597  HIT:      90102  MISS:      15495
LLC WRITEBACK ACCESS:      13707  HIT:      13636  MISS:         71
LLC PREFETCH  REQUESTED:          0  ISSUED:          0  USEFUL:       3836  USELESS:      17026
LLC AVERAGE MISS LATENCY: 166.585 cycles
Major fault: 0 Minor fault: 1285
CPU 0 L1I next line prefetcher final stats
CPU 0 L1D next line prefetcher final stats

DRAM Statistics
 CHANNEL 0
 RQ ROW_BUFFER_HIT:       8930  ROW_BUFFER_MISS:      20296
 DBUS_CONGESTED:      12594
 WQ ROW_BUFFER_HIT:       2907  ROW_BUFFER_MISS:      10019  FULL:          0

 AVG_CONGESTED_CYCLE: 6

CPU 0 Branch Prediction Accuracy: 97.1633% MPKI: 1.73704 Average ROB Occupancy at Mispredict: 32.9263

Branch types
NOT_BRANCH: 46937910 93.8758%
BRANCH_DIRECT_JUMP: 170816 0.341632%
BRANCH_INDIRECT: 0 0%
BRANCH_CONDITIONAL: 2532772 5.06554%
BRANCH_DIRECT_CALL: 114227 0.228454%
BRANCH_INDIRECT_CALL: 64863 0.129726%
BRANCH_RETURN: 179089 0.358178%
BRANCH_OTHER: 0 0%

