Initialize SIGNATURE TABLE
ST_SET: 1
ST_WAY: 256
ST_TAG_BIT: 16
ST_TAG_MASK: ffff

Initialize PATTERN TABLE
PT_SET: 512
PT_WAY: 4
SIG_DELTA_BIT: 7
C_SIG_BIT: 4
C_DELTA_BIT: 4

Initialize PREFETCH FILTER
FILTER_SET: 1024

*** ChampSim Multicore Out-of-Order Simulator ***

Warmup Instructions: 50000000
Simulation Instructions: 50000000
Number of CPUs: 1
LLC sets: 2048
LLC ways: 16
Off-chip DRAM Size: 4096 MB Channels: 1 Width: 64-bit Data Rate: 3200 MT/s

CPU 0 runs /home/tongjie/ChampSim-master/ipc1_public/spec_gobmk_002.champsimtrace.xz
CPU 0 L1I next line prefetcher
CPU 0 L1D next line prefetcher
Heartbeat CPU 0 instructions: 10000001 cycles: 3287480 heartbeat IPC: 3.04184 cumulative IPC: 3.04184 (Simulation time: 0 hr 0 min 19 sec) 
Heartbeat CPU 0 instructions: 20000000 cycles: 6619094 heartbeat IPC: 3.00155 cumulative IPC: 3.02156 (Simulation time: 0 hr 0 min 38 sec) 
Heartbeat CPU 0 instructions: 30000000 cycles: 9957053 heartbeat IPC: 2.99584 cumulative IPC: 3.01294 (Simulation time: 0 hr 0 min 57 sec) 
Heartbeat CPU 0 instructions: 40000000 cycles: 13266479 heartbeat IPC: 3.02167 cumulative IPC: 3.01512 (Simulation time: 0 hr 1 min 17 sec) 
Heartbeat CPU 0 instructions: 50000003 cycles: 16530039 heartbeat IPC: 3.06414 cumulative IPC: 3.0248 (Simulation time: 0 hr 1 min 36 sec) 

Warmup complete CPU 0 instructions: 50000003 cycles: 16530039 (Simulation time: 0 hr 1 min 36 sec) 

Heartbeat CPU 0 instructions: 60000002 cycles: 24486190 heartbeat IPC: 1.25689 cumulative IPC: 1.25689 (Simulation time: 0 hr 1 min 52 sec) 
Heartbeat CPU 0 instructions: 70000001 cycles: 32410512 heartbeat IPC: 1.26194 cumulative IPC: 1.25941 (Simulation time: 0 hr 2 min 9 sec) 
Heartbeat CPU 0 instructions: 80000001 cycles: 40153685 heartbeat IPC: 1.29146 cumulative IPC: 1.26991 (Simulation time: 0 hr 2 min 24 sec) 
Heartbeat CPU 0 instructions: 90000000 cycles: 48165927 heartbeat IPC: 1.24809 cumulative IPC: 1.26439 (Simulation time: 0 hr 2 min 38 sec) 
Heartbeat CPU 0 instructions: 100000003 cycles: 56385246 heartbeat IPC: 1.21665 cumulative IPC: 1.25454 (Simulation time: 0 hr 2 min 52 sec) 
Finished CPU 0 instructions: 50000000 cycles: 39855207 cumulative IPC: 1.25454 (Simulation time: 0 hr 2 min 52 sec) 

ChampSim completed all CPUs

Region of Interest Statistics

CPU 0 cumulative IPC: 1.25454 instructions: 50000000 cycles: 39855207
L1D TOTAL     ACCESS:   17844512  HIT:   17721378  MISS:     123134
L1D LOAD      ACCESS:    6761433  HIT:    6727304  MISS:      34129
L1D RFO       ACCESS:    4397108  HIT:    4354464  MISS:      42644
L1D PREFETCH  ACCESS:    6685971  HIT:    6639610  MISS:      46361
L1D WRITEBACK ACCESS:          0  HIT:          0  MISS:          0
L1D PREFETCH  REQUESTED:   14484463  ISSUED:   14317176  USEFUL:      39125  USELESS:      64079
L1D AVERAGE MISS LATENCY: 50.0727 cycles
L1I TOTAL     ACCESS:    9497941  HIT:    8725428  MISS:     772513
L1I LOAD      ACCESS:    8830628  HIT:    8463601  MISS:     367027
L1I RFO       ACCESS:          0  HIT:          0  MISS:          0
L1I PREFETCH  ACCESS:     667313  HIT:     261827  MISS:     405486
L1I WRITEBACK ACCESS:          0  HIT:          0  MISS:          0
L1I PREFETCH  REQUESTED:    2630058  ISSUED:    2630058  USEFUL:     474505  USELESS:     356270
L1I AVERAGE MISS LATENCY: 13.8596 cycles
L2C TOTAL     ACCESS:    1377313  HIT:    1337638  MISS:      39675
L2C LOAD      ACCESS:     344777  HIT:     330727  MISS:      14050
L2C RFO       ACCESS:      42513  HIT:      39338  MISS:       3175
L2C PREFETCH  ACCESS:     915818  HIT:     893575  MISS:      22243
L2C WRITEBACK ACCESS:      74205  HIT:      73998  MISS:        207
L2C PREFETCH  REQUESTED:    1819145  ISSUED:    1815845  USEFUL:       7944  USELESS:      43812
L2C AVERAGE MISS LATENCY: 120.124 cycles
LLC TOTAL     ACCESS:     115117  HIT:      77071  MISS:      38046
LLC LOAD      ACCESS:      14049  HIT:       5801  MISS:       8248
LLC RFO       ACCESS:       3175  HIT:       1587  MISS:       1588
LLC PREFETCH  ACCESS:      79260  HIT:      51632  MISS:      27628
LLC WRITEBACK ACCESS:      18633  HIT:      18051  MISS:        582
LLC PREFETCH  REQUESTED:          0  ISSUED:          0  USEFUL:       5632  USELESS:      37520
LLC AVERAGE MISS LATENCY: 186.311 cycles
Major fault: 0 Minor fault: 2785
CPU 0 L1I next line prefetcher final stats
CPU 0 L1D next line prefetcher final stats

DRAM Statistics
 CHANNEL 0
 RQ ROW_BUFFER_HIT:       2923  ROW_BUFFER_MISS:      34541
 DBUS_CONGESTED:      23880
 WQ ROW_BUFFER_HIT:        676  ROW_BUFFER_MISS:      14774  FULL:          0

 AVG_CONGESTED_CYCLE: 5

CPU 0 Branch Prediction Accuracy: 93.9974% MPKI: 10.2447 Average ROB Occupancy at Mispredict: 35.2039

Branch types
NOT_BRANCH: 41466058 82.9321%
BRANCH_DIRECT_JUMP: 464313 0.928626%
BRANCH_INDIRECT: 32 6.4e-05%
BRANCH_CONDITIONAL: 7069453 14.1389%
BRANCH_DIRECT_CALL: 499587 0.999174%
BRANCH_INDIRECT_CALL: 342 0.000684%
BRANCH_RETURN: 499906 0.999812%
BRANCH_OTHER: 0 0%

