Initialize SIGNATURE TABLE
ST_SET: 1
ST_WAY: 256
ST_TAG_BIT: 16
ST_TAG_MASK: ffff

Initialize PATTERN TABLE
PT_SET: 512
PT_WAY: 4
SIG_DELTA_BIT: 7
C_SIG_BIT: 4
C_DELTA_BIT: 4

Initialize PREFETCH FILTER
FILTER_SET: 1024

*** ChampSim Multicore Out-of-Order Simulator ***

Warmup Instructions: 50000000
Simulation Instructions: 50000000
Number of CPUs: 1
LLC sets: 2048
LLC ways: 16
Off-chip DRAM Size: 4096 MB Channels: 1 Width: 64-bit Data Rate: 3200 MT/s

CPU 0 runs /home/tongjie/ChampSim-master/ipc1_public/spec_gobmk_001.champsimtrace.xz
CPU 0 L1I next line prefetcher
CPU 0 L1D next line prefetcher
Heartbeat CPU 0 instructions: 10000003 cycles: 3511284 heartbeat IPC: 2.84796 cumulative IPC: 2.84796 (Simulation time: 0 hr 0 min 19 sec) 
Heartbeat CPU 0 instructions: 20000002 cycles: 6992344 heartbeat IPC: 2.87269 cumulative IPC: 2.86027 (Simulation time: 0 hr 0 min 39 sec) 
Heartbeat CPU 0 instructions: 30000002 cycles: 10511570 heartbeat IPC: 2.84153 cumulative IPC: 2.854 (Simulation time: 0 hr 0 min 58 sec) 
Heartbeat CPU 0 instructions: 40000001 cycles: 14030751 heartbeat IPC: 2.84157 cumulative IPC: 2.85088 (Simulation time: 0 hr 1 min 17 sec) 
Heartbeat CPU 0 instructions: 50000001 cycles: 17571032 heartbeat IPC: 2.82463 cumulative IPC: 2.84559 (Simulation time: 0 hr 1 min 36 sec) 

Warmup complete CPU 0 instructions: 50000001 cycles: 17571032 (Simulation time: 0 hr 1 min 36 sec) 

Heartbeat CPU 0 instructions: 60000000 cycles: 26793952 heartbeat IPC: 1.08426 cumulative IPC: 1.08426 (Simulation time: 0 hr 1 min 53 sec) 
Heartbeat CPU 0 instructions: 70000002 cycles: 35703481 heartbeat IPC: 1.12239 cumulative IPC: 1.103 (Simulation time: 0 hr 2 min 10 sec) 
Heartbeat CPU 0 instructions: 80000003 cycles: 44962900 heartbeat IPC: 1.07998 cumulative IPC: 1.09522 (Simulation time: 0 hr 2 min 26 sec) 
Heartbeat CPU 0 instructions: 90000001 cycles: 53847415 heartbeat IPC: 1.12555 cumulative IPC: 1.10265 (Simulation time: 0 hr 2 min 41 sec) 
Heartbeat CPU 0 instructions: 100000003 cycles: 63111914 heartbeat IPC: 1.07939 cumulative IPC: 1.09791 (Simulation time: 0 hr 2 min 55 sec) 
Finished CPU 0 instructions: 50000002 cycles: 45540882 cumulative IPC: 1.09791 (Simulation time: 0 hr 2 min 55 sec) 

ChampSim completed all CPUs

Region of Interest Statistics

CPU 0 cumulative IPC: 1.09791 instructions: 50000002 cycles: 45540882
L1D TOTAL     ACCESS:   18182173  HIT:   17802540  MISS:     379633
L1D LOAD      ACCESS:    7303108  HIT:    7168570  MISS:     134538
L1D RFO       ACCESS:    3711446  HIT:    3606994  MISS:     104452
L1D PREFETCH  ACCESS:    7167619  HIT:    7026976  MISS:     140643
L1D WRITEBACK ACCESS:          0  HIT:          0  MISS:          0
L1D PREFETCH  REQUESTED:   15763079  ISSUED:   15562994  USEFUL:     119659  USELESS:     203379
L1D AVERAGE MISS LATENCY: 33.2948 cycles
L1I TOTAL     ACCESS:    9435675  HIT:    8859854  MISS:     575821
L1I LOAD      ACCESS:    8939669  HIT:    8667011  MISS:     272658
L1I RFO       ACCESS:          0  HIT:          0  MISS:          0
L1I PREFETCH  ACCESS:     496006  HIT:     192843  MISS:     303163
L1I WRITEBACK ACCESS:          0  HIT:          0  MISS:          0
L1I PREFETCH  REQUESTED:    1908460  ISSUED:    1908460  USEFUL:     336130  USELESS:     254146
L1I AVERAGE MISS LATENCY: 14.6061 cycles
L2C TOTAL     ACCESS:    1503837  HIT:    1371575  MISS:     132262
L2C LOAD      ACCESS:     343531  HIT:     304025  MISS:      39506
L2C RFO       ACCESS:     104108  HIT:      69355  MISS:      34753
L2C PREFETCH  ACCESS:     916881  HIT:     858949  MISS:      57932
L2C WRITEBACK ACCESS:     139317  HIT:     139246  MISS:         71
L2C PREFETCH  REQUESTED:    1876538  ISSUED:    1869387  USEFUL:      15742  USELESS:     128266
L2C AVERAGE MISS LATENCY: 62.2408 cycles
LLC TOTAL     ACCESS:     287684  HIT:     248714  MISS:      38970
LLC LOAD      ACCESS:      39505  HIT:      31206  MISS:       8299
LLC RFO       ACCESS:      34753  HIT:      28402  MISS:       6351
LLC PREFETCH  ACCESS:     167879  HIT:     143843  MISS:      24036
LLC WRITEBACK ACCESS:      45547  HIT:      45263  MISS:        284
LLC PREFETCH  REQUESTED:          0  ISSUED:          0  USEFUL:       6255  USELESS:      47127
LLC AVERAGE MISS LATENCY: 177.034 cycles
Major fault: 0 Minor fault: 4166
CPU 0 L1I next line prefetcher final stats
CPU 0 L1D next line prefetcher final stats

DRAM Statistics
 CHANNEL 0
 RQ ROW_BUFFER_HIT:       4598  ROW_BUFFER_MISS:      34087
 DBUS_CONGESTED:      24771
 WQ ROW_BUFFER_HIT:       1312  ROW_BUFFER_MISS:      15201  FULL:          0

 AVG_CONGESTED_CYCLE: 4

CPU 0 Branch Prediction Accuracy: 94.7729% MPKI: 9.72684 Average ROB Occupancy at Mispredict: 49.6161

Branch types
NOT_BRANCH: 40695396 81.3908%
BRANCH_DIRECT_JUMP: 422107 0.844214%
BRANCH_INDIRECT: 65 0.00013%
BRANCH_CONDITIONAL: 8105005 16.21%
BRANCH_DIRECT_CALL: 374913 0.749826%
BRANCH_INDIRECT_CALL: 13657 0.027314%
BRANCH_RETURN: 388556 0.777112%
BRANCH_OTHER: 0 0%

