Initialize SIGNATURE TABLE
ST_SET: 1
ST_WAY: 256
ST_TAG_BIT: 16
ST_TAG_MASK: ffff

Initialize PATTERN TABLE
PT_SET: 512
PT_WAY: 4
SIG_DELTA_BIT: 7
C_SIG_BIT: 4
C_DELTA_BIT: 4

Initialize PREFETCH FILTER
FILTER_SET: 1024

*** ChampSim Multicore Out-of-Order Simulator ***

Warmup Instructions: 50000000
Simulation Instructions: 50000000
Number of CPUs: 1
LLC sets: 2048
LLC ways: 16
Off-chip DRAM Size: 4096 MB Channels: 1 Width: 64-bit Data Rate: 3200 MT/s

CPU 0 runs /home/tongjie/ChampSim-master/ipc1_public/spec_gcc_001.champsimtrace.xz
CPU 0 L1I next line prefetcher
CPU 0 L1D next line prefetcher
Heartbeat CPU 0 instructions: 10000003 cycles: 3215701 heartbeat IPC: 3.10974 cumulative IPC: 3.10974 (Simulation time: 0 hr 0 min 20 sec) 
Heartbeat CPU 0 instructions: 20000002 cycles: 6459834 heartbeat IPC: 3.08249 cumulative IPC: 3.09606 (Simulation time: 0 hr 0 min 40 sec) 
Heartbeat CPU 0 instructions: 30000000 cycles: 9661115 heartbeat IPC: 3.12375 cumulative IPC: 3.10523 (Simulation time: 0 hr 1 min 0 sec) 
Heartbeat CPU 0 instructions: 40000001 cycles: 12901736 heartbeat IPC: 3.08583 cumulative IPC: 3.10036 (Simulation time: 0 hr 1 min 22 sec) 
Heartbeat CPU 0 instructions: 50000001 cycles: 16141901 heartbeat IPC: 3.08626 cumulative IPC: 3.09753 (Simulation time: 0 hr 1 min 41 sec) 

Warmup complete CPU 0 instructions: 50000001 cycles: 16141901 (Simulation time: 0 hr 1 min 41 sec) 

Heartbeat CPU 0 instructions: 60000000 cycles: 24066195 heartbeat IPC: 1.26194 cumulative IPC: 1.26194 (Simulation time: 0 hr 1 min 59 sec) 
Heartbeat CPU 0 instructions: 70000002 cycles: 32128895 heartbeat IPC: 1.24028 cumulative IPC: 1.25102 (Simulation time: 0 hr 2 min 17 sec) 
Heartbeat CPU 0 instructions: 80000000 cycles: 39813686 heartbeat IPC: 1.30127 cumulative IPC: 1.26733 (Simulation time: 0 hr 2 min 35 sec) 
Heartbeat CPU 0 instructions: 90000001 cycles: 47904362 heartbeat IPC: 1.23599 cumulative IPC: 1.25935 (Simulation time: 0 hr 2 min 53 sec) 
Heartbeat CPU 0 instructions: 100000000 cycles: 56267856 heartbeat IPC: 1.19567 cumulative IPC: 1.24608 (Simulation time: 0 hr 3 min 12 sec) 
Finished CPU 0 instructions: 50000000 cycles: 40125959 cumulative IPC: 1.24608 (Simulation time: 0 hr 3 min 12 sec) 

ChampSim completed all CPUs

Region of Interest Statistics

CPU 0 cumulative IPC: 1.24608 instructions: 50000000 cycles: 40125959
L1D TOTAL     ACCESS:   19475541  HIT:   18370339  MISS:    1105202
L1D LOAD      ACCESS:    7305004  HIT:    6826464  MISS:     478540
L1D RFO       ACCESS:    5123342  HIT:    5043840  MISS:      79502
L1D PREFETCH  ACCESS:    7047195  HIT:    6500035  MISS:     547160
L1D WRITEBACK ACCESS:          0  HIT:          0  MISS:          0
L1D PREFETCH  REQUESTED:   16412476  ISSUED:   16185917  USEFUL:     404899  USELESS:     404162
L1D AVERAGE MISS LATENCY: 25.5683 cycles
L1I TOTAL     ACCESS:    9646279  HIT:    9208717  MISS:     437562
L1I LOAD      ACCESS:    9303391  HIT:    9101362  MISS:     202029
L1I RFO       ACCESS:          0  HIT:          0  MISS:          0
L1I PREFETCH  ACCESS:     342888  HIT:     107355  MISS:     235533
L1I WRITEBACK ACCESS:          0  HIT:          0  MISS:          0
L1I PREFETCH  REQUESTED:    2019090  ISSUED:    2019090  USEFUL:     338369  USELESS:     410883
L1I AVERAGE MISS LATENCY: 22.5254 cycles
L2C TOTAL     ACCESS:    2652711  HIT:    2395005  MISS:     257706
L2C LOAD      ACCESS:     620717  HIT:     535684  MISS:      85033
L2C RFO       ACCESS:      75011  HIT:      36524  MISS:      38487
L2C PREFETCH  ACCESS:    1703219  HIT:    1569663  MISS:     133556
L2C WRITEBACK ACCESS:     253764  HIT:     253134  MISS:        630
L2C PREFETCH  REQUESTED:    3334360  ISSUED:    3332133  USEFUL:      60956  USELESS:     221699
L2C AVERAGE MISS LATENCY: 66.5498 cycles
LLC TOTAL     ACCESS:     615930  HIT:     540657  MISS:      75273
LLC LOAD      ACCESS:      84826  HIT:      75911  MISS:       8915
LLC RFO       ACCESS:      38485  HIT:      17896  MISS:      20589
LLC PREFETCH  ACCESS:     398960  HIT:     354229  MISS:      44731
LLC WRITEBACK ACCESS:      93659  HIT:      92621  MISS:       1038
LLC PREFETCH  REQUESTED:          0  ISSUED:          0  USEFUL:      27800  USELESS:     113031
LLC AVERAGE MISS LATENCY: 190.545 cycles
Major fault: 0 Minor fault: 6874
CPU 0 L1I next line prefetcher final stats
CPU 0 L1D next line prefetcher final stats

DRAM Statistics
 CHANNEL 0
 RQ ROW_BUFFER_HIT:      21130  ROW_BUFFER_MISS:      53097
 DBUS_CONGESTED:      45485
 WQ ROW_BUFFER_HIT:       3825  ROW_BUFFER_MISS:      24136  FULL:          0

 AVG_CONGESTED_CYCLE: 6

CPU 0 Branch Prediction Accuracy: 95.8872% MPKI: 9.67286 Average ROB Occupancy at Mispredict: 61.0857

Branch types
NOT_BRANCH: 38240102 76.4802%
BRANCH_DIRECT_JUMP: 653296 1.30659%
BRANCH_INDIRECT: 37098 0.074196%
BRANCH_CONDITIONAL: 8897819 17.7956%
BRANCH_DIRECT_CALL: 992620 1.98524%
BRANCH_INDIRECT_CALL: 93046 0.186092%
BRANCH_RETURN: 1085674 2.17135%
BRANCH_OTHER: 0 0%

