Initialize SIGNATURE TABLE
ST_SET: 1
ST_WAY: 256
ST_TAG_BIT: 16
ST_TAG_MASK: ffff

Initialize PATTERN TABLE
PT_SET: 512
PT_WAY: 4
SIG_DELTA_BIT: 7
C_SIG_BIT: 4
C_DELTA_BIT: 4

Initialize PREFETCH FILTER
FILTER_SET: 1024

*** ChampSim Multicore Out-of-Order Simulator ***

Warmup Instructions: 50000000
Simulation Instructions: 50000000
Number of CPUs: 1
LLC sets: 2048
LLC ways: 16
Off-chip DRAM Size: 4096 MB Channels: 1 Width: 64-bit Data Rate: 3200 MT/s

CPU 0 runs /home/tongjie/ChampSim-master/ipc1_public/spec_gcc_002.champsimtrace.xz
CPU 0 L1I next line prefetcher
CPU 0 L1D next line prefetcher
Heartbeat CPU 0 instructions: 10000002 cycles: 3561397 heartbeat IPC: 2.80789 cumulative IPC: 2.80789 (Simulation time: 0 hr 0 min 19 sec) 
Heartbeat CPU 0 instructions: 20000000 cycles: 7132805 heartbeat IPC: 2.80002 cumulative IPC: 2.80395 (Simulation time: 0 hr 0 min 37 sec) 
Heartbeat CPU 0 instructions: 30000000 cycles: 10782766 heartbeat IPC: 2.73976 cumulative IPC: 2.78222 (Simulation time: 0 hr 0 min 58 sec) 
Heartbeat CPU 0 instructions: 40000000 cycles: 14332508 heartbeat IPC: 2.81711 cumulative IPC: 2.79086 (Simulation time: 0 hr 1 min 18 sec) 
Heartbeat CPU 0 instructions: 50000002 cycles: 17814412 heartbeat IPC: 2.87199 cumulative IPC: 2.80672 (Simulation time: 0 hr 1 min 35 sec) 

Warmup complete CPU 0 instructions: 50000002 cycles: 17814412 (Simulation time: 0 hr 1 min 35 sec) 

Heartbeat CPU 0 instructions: 60000001 cycles: 57622078 heartbeat IPC: 0.251208 cumulative IPC: 0.251208 (Simulation time: 0 hr 2 min 18 sec) 
Heartbeat CPU 0 instructions: 70000001 cycles: 90682935 heartbeat IPC: 0.302473 cumulative IPC: 0.274467 (Simulation time: 0 hr 2 min 56 sec) 
Heartbeat CPU 0 instructions: 80000002 cycles: 140952400 heartbeat IPC: 0.198928 cumulative IPC: 0.243629 (Simulation time: 0 hr 3 min 44 sec) 
Heartbeat CPU 0 instructions: 90000001 cycles: 186742687 heartbeat IPC: 0.218387 cumulative IPC: 0.236787 (Simulation time: 0 hr 4 min 28 sec) 
Heartbeat CPU 0 instructions: 100000000 cycles: 218292813 heartbeat IPC: 0.316956 cumulative IPC: 0.249403 (Simulation time: 0 hr 5 min 3 sec) 
Finished CPU 0 instructions: 50000002 cycles: 200478409 cumulative IPC: 0.249403 (Simulation time: 0 hr 5 min 3 sec) 

ChampSim completed all CPUs

Region of Interest Statistics

CPU 0 cumulative IPC: 0.249403 instructions: 50000002 cycles: 200478409
L1D TOTAL     ACCESS:   18587021  HIT:   13353126  MISS:    5233895
L1D LOAD      ACCESS:    6518792  HIT:    5469779  MISS:    1049013
L1D RFO       ACCESS:    7048599  HIT:    3447668  MISS:    3600931
L1D PREFETCH  ACCESS:    5019630  HIT:    4435679  MISS:     583951
L1D WRITEBACK ACCESS:          0  HIT:          0  MISS:          0
L1D PREFETCH  REQUESTED:   14078578  ISSUED:   13922563  USEFUL:    1170779  USELESS:     305318
L1D AVERAGE MISS LATENCY: 331.762 cycles
L1I TOTAL     ACCESS:   12716233  HIT:   11758601  MISS:     957632
L1I LOAD      ACCESS:   12065568  HIT:   11612772  MISS:     452796
L1I RFO       ACCESS:          0  HIT:          0  MISS:          0
L1I PREFETCH  ACCESS:     650665  HIT:     145829  MISS:     504836
L1I WRITEBACK ACCESS:          0  HIT:          0  MISS:          0
L1I PREFETCH  REQUESTED:    2756710  ISSUED:    2756710  USEFUL:     439378  USELESS:     574349
L1I AVERAGE MISS LATENCY: 62.65 cycles
L2C TOTAL     ACCESS:   10328104  HIT:    4962073  MISS:    5366031
L2C LOAD      ACCESS:     601080  HIT:     336287  MISS:     264793
L2C RFO       ACCESS:    3599388  HIT:      13270  MISS:    3586118
L2C PREFETCH  ACCESS:    2402069  HIT:     887031  MISS:    1515038
L2C WRITEBACK ACCESS:    3725567  HIT:    3725485  MISS:         82
L2C PREFETCH  REQUESTED:    7844845  ISSUED:    7839489  USEFUL:      83101  USELESS:    2823034
L2C AVERAGE MISS LATENCY: 338.95 cycles
LLC TOTAL     ACCESS:    9982034  HIT:    6083783  MISS:    3898251
LLC LOAD      ACCESS:     264562  HIT:     155060  MISS:     109502
LLC RFO       ACCESS:    3586116  HIT:     593579  MISS:    2992537
LLC PREFETCH  ACCESS:    2465433  HIT:    1669223  MISS:     796210
LLC WRITEBACK ACCESS:    3665923  HIT:    3665921  MISS:          2
LLC PREFETCH  REQUESTED:          0  ISSUED:          0  USEFUL:     344221  USELESS:    1304636
LLC AVERAGE MISS LATENCY: 447.396 cycles
Major fault: 0 Minor fault: 4157
CPU 0 L1I next line prefetcher final stats
CPU 0 L1D next line prefetcher final stats

DRAM Statistics
 CHANNEL 0
 RQ ROW_BUFFER_HIT:    1041742  ROW_BUFFER_MISS:    2854587
 DBUS_CONGESTED:    5547380
 WQ ROW_BUFFER_HIT:     937543  ROW_BUFFER_MISS:    2234224  FULL:          0

 AVG_CONGESTED_CYCLE: 6

CPU 0 Branch Prediction Accuracy: 99.5987% MPKI: 0.82446 Average ROB Occupancy at Mispredict: 101.24

Branch types
NOT_BRANCH: 39726805 79.4536%
BRANCH_DIRECT_JUMP: 391438 0.782876%
BRANCH_INDIRECT: 62076 0.124152%
BRANCH_CONDITIONAL: 8421541 16.8431%
BRANCH_DIRECT_CALL: 672962 1.34592%
BRANCH_INDIRECT_CALL: 26115 0.05223%
BRANCH_RETURN: 699082 1.39816%
BRANCH_OTHER: 0 0%

