Initialize SIGNATURE TABLE
ST_SET: 1
ST_WAY: 256
ST_TAG_BIT: 16
ST_TAG_MASK: ffff

Initialize PATTERN TABLE
PT_SET: 512
PT_WAY: 4
SIG_DELTA_BIT: 7
C_SIG_BIT: 4
C_DELTA_BIT: 4

Initialize PREFETCH FILTER
FILTER_SET: 1024

*** ChampSim Multicore Out-of-Order Simulator ***

Warmup Instructions: 50000000
Simulation Instructions: 50000000
Number of CPUs: 1
LLC sets: 2048
LLC ways: 16
Off-chip DRAM Size: 4096 MB Channels: 1 Width: 64-bit Data Rate: 3200 MT/s

CPU 0 runs /home/tongjie/ChampSim-master/ipc1_public/spec_gcc_003.champsimtrace.xz
CPU 0 L1I next line prefetcher
CPU 0 L1D next line prefetcher
Heartbeat CPU 0 instructions: 10000001 cycles: 3488975 heartbeat IPC: 2.86617 cumulative IPC: 2.86617 (Simulation time: 0 hr 0 min 18 sec) 
Heartbeat CPU 0 instructions: 20000000 cycles: 6957117 heartbeat IPC: 2.88339 cumulative IPC: 2.87475 (Simulation time: 0 hr 0 min 35 sec) 
Heartbeat CPU 0 instructions: 30000002 cycles: 10408460 heartbeat IPC: 2.89742 cumulative IPC: 2.88227 (Simulation time: 0 hr 0 min 53 sec) 
Heartbeat CPU 0 instructions: 40000000 cycles: 13875917 heartbeat IPC: 2.88396 cumulative IPC: 2.88269 (Simulation time: 0 hr 1 min 11 sec) 
Heartbeat CPU 0 instructions: 50000001 cycles: 17184665 heartbeat IPC: 3.02229 cumulative IPC: 2.90957 (Simulation time: 0 hr 1 min 28 sec) 

Warmup complete CPU 0 instructions: 50000001 cycles: 17184665 (Simulation time: 0 hr 1 min 28 sec) 

Heartbeat CPU 0 instructions: 60000000 cycles: 58652478 heartbeat IPC: 0.241151 cumulative IPC: 0.241151 (Simulation time: 0 hr 2 min 12 sec) 
Heartbeat CPU 0 instructions: 70000000 cycles: 102993713 heartbeat IPC: 0.225524 cumulative IPC: 0.233076 (Simulation time: 0 hr 2 min 59 sec) 
Heartbeat CPU 0 instructions: 80000002 cycles: 148268243 heartbeat IPC: 0.220875 cumulative IPC: 0.228862 (Simulation time: 0 hr 3 min 44 sec) 
Heartbeat CPU 0 instructions: 90000002 cycles: 186665491 heartbeat IPC: 0.260435 cumulative IPC: 0.236015 (Simulation time: 0 hr 4 min 24 sec) 
Heartbeat CPU 0 instructions: 100000001 cycles: 234681800 heartbeat IPC: 0.208263 cumulative IPC: 0.229888 (Simulation time: 0 hr 5 min 10 sec) 
Finished CPU 0 instructions: 50000000 cycles: 217497135 cumulative IPC: 0.229888 (Simulation time: 0 hr 5 min 10 sec) 

ChampSim completed all CPUs

Region of Interest Statistics

CPU 0 cumulative IPC: 0.229888 instructions: 50000000 cycles: 217497135
L1D TOTAL     ACCESS:   17345931  HIT:   11621398  MISS:    5724533
L1D LOAD      ACCESS:    4793448  HIT:    4411781  MISS:     381667
L1D RFO       ACCESS:    8241547  HIT:    3189521  MISS:    5052026
L1D PREFETCH  ACCESS:    4310936  HIT:    4020096  MISS:     290840
L1D WRITEBACK ACCESS:          0  HIT:          0  MISS:          0
L1D PREFETCH  REQUESTED:   10859324  ISSUED:   10709194  USEFUL:     392628  USELESS:     271752
L1D AVERAGE MISS LATENCY: 499.18 cycles
L1I TOTAL     ACCESS:   12036142  HIT:   10850149  MISS:    1185993
L1I LOAD      ACCESS:   11242133  HIT:   10679317  MISS:     562816
L1I RFO       ACCESS:          0  HIT:          0  MISS:          0
L1I PREFETCH  ACCESS:     794009  HIT:     170832  MISS:     623177
L1I WRITEBACK ACCESS:          0  HIT:          0  MISS:          0
L1I PREFETCH  REQUESTED:    3349116  ISSUED:    3349116  USEFUL:     536882  USELESS:     707425
L1I AVERAGE MISS LATENCY: 60.6231 cycles
L2C TOTAL     ACCESS:   12439720  HIT:    6301832  MISS:    6137888
L2C LOAD      ACCESS:     636125  HIT:     310099  MISS:     326026
L2C RFO       ACCESS:    5050217  HIT:       6585  MISS:    5043632
L2C PREFETCH  ACCESS:    1595423  HIT:     827543  MISS:     767880
L2C WRITEBACK ACCESS:    5157955  HIT:    5157605  MISS:        350
L2C PREFETCH  REQUESTED:    5482871  ISSUED:    5477041  USEFUL:      91200  USELESS:    1683305
L2C AVERAGE MISS LATENCY: 464.904 cycles
LLC TOTAL     ACCESS:   12032106  HIT:    7186477  MISS:    4845629
LLC LOAD      ACCESS:     325938  HIT:     233463  MISS:      92475
LLC RFO       ACCESS:    5043631  HIT:     603495  MISS:    4440136
LLC PREFETCH  ACCESS:    1528770  HIT:    1215752  MISS:     313018
LLC WRITEBACK ACCESS:    5133767  HIT:    5133767  MISS:          0
LLC PREFETCH  REQUESTED:          0  ISSUED:          0  USEFUL:      62732  USELESS:     548771
LLC AVERAGE MISS LATENCY: 559.805 cycles
Major fault: 0 Minor fault: 2821
CPU 0 L1I next line prefetcher final stats
CPU 0 L1D next line prefetcher final stats

DRAM Statistics
 CHANNEL 0
 RQ ROW_BUFFER_HIT:    1489499  ROW_BUFFER_MISS:    3356088
 DBUS_CONGESTED:    8277420
 WQ ROW_BUFFER_HIT:    1183414  ROW_BUFFER_MISS:    3286020  FULL:          0

 AVG_CONGESTED_CYCLE: 6

CPU 0 Branch Prediction Accuracy: 99.665% MPKI: 0.78342 Average ROB Occupancy at Mispredict: 84.3221

Branch types
NOT_BRANCH: 38305858 76.6117%
BRANCH_DIRECT_JUMP: 384281 0.768562%
BRANCH_INDIRECT: 71949 0.143898%
BRANCH_CONDITIONAL: 9879825 19.7597%
BRANCH_DIRECT_CALL: 650586 1.30117%
BRANCH_INDIRECT_CALL: 28456 0.056912%
BRANCH_RETURN: 679046 1.35809%
BRANCH_OTHER: 0 0%

