Initialize SIGNATURE TABLE
ST_SET: 1
ST_WAY: 256
ST_TAG_BIT: 16
ST_TAG_MASK: ffff

Initialize PATTERN TABLE
PT_SET: 512
PT_WAY: 4
SIG_DELTA_BIT: 7
C_SIG_BIT: 4
C_DELTA_BIT: 4

Initialize PREFETCH FILTER
FILTER_SET: 1024

*** ChampSim Multicore Out-of-Order Simulator ***

Warmup Instructions: 50000000
Simulation Instructions: 50000000
Number of CPUs: 1
LLC sets: 2048
LLC ways: 16
Off-chip DRAM Size: 4096 MB Channels: 1 Width: 64-bit Data Rate: 3200 MT/s

CPU 0 runs /home/tongjie/ChampSim-master/ipc1_public/spec_perlbench_001.champsimtrace.xz
CPU 0 L1I next line prefetcher
CPU 0 L1D next line prefetcher
Heartbeat CPU 0 instructions: 10000000 cycles: 3276106 heartbeat IPC: 3.0524 cumulative IPC: 3.0524 (Simulation time: 0 hr 0 min 21 sec) 
Heartbeat CPU 0 instructions: 20000000 cycles: 6541026 heartbeat IPC: 3.06286 cumulative IPC: 3.05762 (Simulation time: 0 hr 0 min 43 sec) 
Heartbeat CPU 0 instructions: 30000002 cycles: 9858372 heartbeat IPC: 3.01446 cumulative IPC: 3.0431 (Simulation time: 0 hr 1 min 5 sec) 
Heartbeat CPU 0 instructions: 40000002 cycles: 13114085 heartbeat IPC: 3.07152 cumulative IPC: 3.05016 (Simulation time: 0 hr 1 min 25 sec) 
Heartbeat CPU 0 instructions: 50000001 cycles: 16387837 heartbeat IPC: 3.0546 cumulative IPC: 3.05104 (Simulation time: 0 hr 1 min 46 sec) 

Warmup complete CPU 0 instructions: 50000001 cycles: 16387837 (Simulation time: 0 hr 1 min 46 sec) 

Heartbeat CPU 0 instructions: 60000001 cycles: 24950429 heartbeat IPC: 1.16787 cumulative IPC: 1.16787 (Simulation time: 0 hr 2 min 7 sec) 
Heartbeat CPU 0 instructions: 70000000 cycles: 33530936 heartbeat IPC: 1.16543 cumulative IPC: 1.16665 (Simulation time: 0 hr 2 min 28 sec) 
Heartbeat CPU 0 instructions: 80000000 cycles: 42127828 heartbeat IPC: 1.16321 cumulative IPC: 1.1655 (Simulation time: 0 hr 2 min 47 sec) 
Heartbeat CPU 0 instructions: 90000000 cycles: 47963802 heartbeat IPC: 1.71351 cumulative IPC: 1.26679 (Simulation time: 0 hr 3 min 2 sec) 
Heartbeat CPU 0 instructions: 100000002 cycles: 53935776 heartbeat IPC: 1.67449 cumulative IPC: 1.33163 (Simulation time: 0 hr 3 min 15 sec) 
Finished CPU 0 instructions: 50000001 cycles: 37547939 cumulative IPC: 1.33163 (Simulation time: 0 hr 3 min 15 sec) 

ChampSim completed all CPUs

Region of Interest Statistics

CPU 0 cumulative IPC: 1.33163 instructions: 50000001 cycles: 37547939
L1D TOTAL     ACCESS:   20881055  HIT:   20465933  MISS:     415122
L1D LOAD      ACCESS:    7263980  HIT:    7050604  MISS:     213376
L1D RFO       ACCESS:    6546533  HIT:    6528051  MISS:      18482
L1D PREFETCH  ACCESS:    7070542  HIT:    6887278  MISS:     183264
L1D WRITEBACK ACCESS:          0  HIT:          0  MISS:          0
L1D PREFETCH  REQUESTED:   16211344  ISSUED:   15917809  USEFUL:     124008  USELESS:     277762
L1D AVERAGE MISS LATENCY: 57.3243 cycles
L1I TOTAL     ACCESS:    9609287  HIT:    9022322  MISS:     586965
L1I LOAD      ACCESS:    9169224  HIT:    8899982  MISS:     269242
L1I RFO       ACCESS:          0  HIT:          0  MISS:          0
L1I PREFETCH  ACCESS:     440063  HIT:     122340  MISS:     317723
L1I WRITEBACK ACCESS:          0  HIT:          0  MISS:          0
L1I PREFETCH  REQUESTED:    1894406  ISSUED:    1894406  USEFUL:     294026  USELESS:     374856
L1I AVERAGE MISS LATENCY: 17.2112 cycles
L2C TOTAL     ACCESS:    1429724  HIT:    1246277  MISS:     183447
L2C LOAD      ACCESS:     425316  HIT:     337864  MISS:      87452
L2C RFO       ACCESS:      18259  HIT:      12639  MISS:       5620
L2C PREFETCH  ACCESS:     907206  HIT:     817281  MISS:      89925
L2C WRITEBACK ACCESS:      78943  HIT:      78493  MISS:        450
L2C PREFETCH  REQUESTED:    2104526  ISSUED:    2104261  USEFUL:      14729  USELESS:     161061
L2C AVERAGE MISS LATENCY: 111.278 cycles
LLC TOTAL     ACCESS:     391691  HIT:     243223  MISS:     148468
LLC LOAD      ACCESS:      87449  HIT:      39767  MISS:      47682
LLC RFO       ACCESS:       5619  HIT:       2640  MISS:       2979
LLC PREFETCH  ACCESS:     272310  HIT:     174977  MISS:      97333
LLC WRITEBACK ACCESS:      26313  HIT:      25839  MISS:        474
LLC PREFETCH  REQUESTED:          0  ISSUED:          0  USEFUL:      30243  USELESS:     142915
LLC AVERAGE MISS LATENCY: 159.781 cycles
Major fault: 0 Minor fault: 6368
CPU 0 L1I next line prefetcher final stats
CPU 0 L1D next line prefetcher final stats

DRAM Statistics
 CHANNEL 0
 RQ ROW_BUFFER_HIT:      34141  ROW_BUFFER_MISS:     113850
 DBUS_CONGESTED:      65403
 WQ ROW_BUFFER_HIT:       3921  ROW_BUFFER_MISS:      13541  FULL:          0

 AVG_CONGESTED_CYCLE: 4

CPU 0 Branch Prediction Accuracy: 98.7418% MPKI: 2.47758 Average ROB Occupancy at Mispredict: 70.7039

Branch types
NOT_BRANCH: 40154109 80.3082%
BRANCH_DIRECT_JUMP: 817094 1.63419%
BRANCH_INDIRECT: 303788 0.607576%
BRANCH_CONDITIONAL: 7492104 14.9842%
BRANCH_DIRECT_CALL: 471777 0.943554%
BRANCH_INDIRECT_CALL: 144546 0.289092%
BRANCH_RETURN: 616324 1.23265%
BRANCH_OTHER: 0 0%

