Initialize SIGNATURE TABLE
ST_SET: 1
ST_WAY: 256
ST_TAG_BIT: 16
ST_TAG_MASK: ffff

Initialize PATTERN TABLE
PT_SET: 512
PT_WAY: 4
SIG_DELTA_BIT: 7
C_SIG_BIT: 4
C_DELTA_BIT: 4

Initialize PREFETCH FILTER
FILTER_SET: 1024

*** ChampSim Multicore Out-of-Order Simulator ***

Warmup Instructions: 50000000
Simulation Instructions: 50000000
Number of CPUs: 1
LLC sets: 2048
LLC ways: 16
Off-chip DRAM Size: 4096 MB Channels: 1 Width: 64-bit Data Rate: 3200 MT/s

CPU 0 runs /home/tongjie/ChampSim-master/ipc1_public/client_004.champsimtrace.xz
CPU 0 L1D next line prefetcher
Heartbeat CPU 0 instructions: 10000000 cycles: 3593765 heartbeat IPC: 2.7826 cumulative IPC: 2.7826 (Simulation time: 0 hr 0 min 23 sec) 
Heartbeat CPU 0 instructions: 20000003 cycles: 7058600 heartbeat IPC: 2.88614 cumulative IPC: 2.83342 (Simulation time: 0 hr 0 min 44 sec) 
Heartbeat CPU 0 instructions: 30000000 cycles: 10650641 heartbeat IPC: 2.78393 cumulative IPC: 2.81673 (Simulation time: 0 hr 1 min 7 sec) 
Heartbeat CPU 0 instructions: 40000003 cycles: 14331588 heartbeat IPC: 2.71669 cumulative IPC: 2.79104 (Simulation time: 0 hr 1 min 30 sec) 
Heartbeat CPU 0 instructions: 50000001 cycles: 17851894 heartbeat IPC: 2.84066 cumulative IPC: 2.80082 (Simulation time: 0 hr 1 min 54 sec) 

Warmup complete CPU 0 instructions: 50000001 cycles: 17851894 (Simulation time: 0 hr 1 min 54 sec) 

Heartbeat CPU 0 instructions: 60000002 cycles: 26833318 heartbeat IPC: 1.11341 cumulative IPC: 1.11341 (Simulation time: 0 hr 2 min 16 sec) 
Heartbeat CPU 0 instructions: 70000001 cycles: 35546227 heartbeat IPC: 1.14772 cumulative IPC: 1.13031 (Simulation time: 0 hr 2 min 37 sec) 
Heartbeat CPU 0 instructions: 80000002 cycles: 45320489 heartbeat IPC: 1.0231 cumulative IPC: 1.09216 (Simulation time: 0 hr 2 min 58 sec) 
Heartbeat CPU 0 instructions: 90000000 cycles: 54280454 heartbeat IPC: 1.11608 cumulative IPC: 1.09804 (Simulation time: 0 hr 3 min 20 sec) 
Heartbeat CPU 0 instructions: 100000001 cycles: 63151652 heartbeat IPC: 1.12724 cumulative IPC: 1.10376 (Simulation time: 0 hr 3 min 41 sec) 
Finished CPU 0 instructions: 50000000 cycles: 45299758 cumulative IPC: 1.10376 (Simulation time: 0 hr 3 min 41 sec) 

ChampSim completed all CPUs

Region of Interest Statistics

CPU 0 cumulative IPC: 1.10376 instructions: 50000000 cycles: 45299758
L1D TOTAL     ACCESS:   22361853  HIT:   21472453  MISS:     889400
L1D LOAD      ACCESS:    8904012  HIT:    8510043  MISS:     393969
L1D RFO       ACCESS:    4841470  HIT:    4720346  MISS:     121124
L1D PREFETCH  ACCESS:    8616371  HIT:    8242064  MISS:     374307
L1D WRITEBACK ACCESS:          0  HIT:          0  MISS:          0
L1D PREFETCH  REQUESTED:   20003740  ISSUED:   19564551  USEFUL:     247892  USELESS:     442736
L1D AVERAGE MISS LATENCY: 28.9179 cycles
L1I TOTAL     ACCESS:    9857563  HIT:    9226187  MISS:     631376
L1I LOAD      ACCESS:    9437178  HIT:    8960921  MISS:     476257
L1I RFO       ACCESS:          0  HIT:          0  MISS:          0
L1I PREFETCH  ACCESS:     420385  HIT:     265266  MISS:     155119
L1I WRITEBACK ACCESS:          0  HIT:          0  MISS:          0
L1I PREFETCH  REQUESTED:   11147630  ISSUED:    2975075  USEFUL:     167463  USELESS:     284853
L1I AVERAGE MISS LATENCY: 25.7643 cycles
L2C TOTAL     ACCESS:    2447630  HIT:    2174983  MISS:     272647
L2C LOAD      ACCESS:     849825  HIT:     707119  MISS:     142706
L2C RFO       ACCESS:     117197  HIT:      47578  MISS:      69619
L2C PREFETCH  ACCESS:    1258502  HIT:    1198691  MISS:      59811
L2C WRITEBACK ACCESS:     222106  HIT:     221595  MISS:        511
L2C PREFETCH  REQUESTED:    2672676  ISSUED:    2633878  USEFUL:      30538  USELESS:     121768
L2C AVERAGE MISS LATENCY: 75.0674 cycles
LLC TOTAL     ACCESS:     679032  HIT:     554355  MISS:     124677
LLC LOAD      ACCESS:     142634  HIT:     110297  MISS:      32337
LLC RFO       ACCESS:      69618  HIT:      39855  MISS:      29763
LLC PREFETCH  ACCESS:     369219  HIT:     306889  MISS:      62330
LLC WRITEBACK ACCESS:      97561  HIT:      97314  MISS:        247
LLC PREFETCH  REQUESTED:          0  ISSUED:          0  USEFUL:      59358  USELESS:      82906
LLC AVERAGE MISS LATENCY: 165.33 cycles
Major fault: 0 Minor fault: 3976
CPU 0 L1D next line prefetcher final stats

DRAM Statistics
 CHANNEL 0
 RQ ROW_BUFFER_HIT:      30707  ROW_BUFFER_MISS:      93715
 DBUS_CONGESTED:      51223
 WQ ROW_BUFFER_HIT:       9638  ROW_BUFFER_MISS:      32695  FULL:          0

 AVG_CONGESTED_CYCLE: 5

CPU 0 Branch Prediction Accuracy: 94.1242% MPKI: 11.6089 Average ROB Occupancy at Mispredict: 46.7917

Branch types
NOT_BRANCH: 40121055 80.2421%
BRANCH_DIRECT_JUMP: 644555 1.28911%
BRANCH_INDIRECT: 201946 0.403892%
BRANCH_CONDITIONAL: 7003556 14.0071%
BRANCH_DIRECT_CALL: 564820 1.12964%
BRANCH_INDIRECT_CALL: 445012 0.890024%
BRANCH_RETURN: 1018716 2.03743%
BRANCH_OTHER: 0 0%

