Initialize SIGNATURE TABLE
ST_SET: 1
ST_WAY: 256
ST_TAG_BIT: 16
ST_TAG_MASK: ffff

Initialize PATTERN TABLE
PT_SET: 512
PT_WAY: 4
SIG_DELTA_BIT: 7
C_SIG_BIT: 4
C_DELTA_BIT: 4

Initialize PREFETCH FILTER
FILTER_SET: 1024

*** ChampSim Multicore Out-of-Order Simulator ***

Warmup Instructions: 50000000
Simulation Instructions: 50000000
Number of CPUs: 1
LLC sets: 2048
LLC ways: 16
Off-chip DRAM Size: 4096 MB Channels: 1 Width: 64-bit Data Rate: 3200 MT/s

CPU 0 runs /home/tongjie/ChampSim-master/ipc1_public/client_001.champsimtrace.xz
CPU 0 L1D next line prefetcher
Heartbeat CPU 0 instructions: 10000003 cycles: 3411151 heartbeat IPC: 2.93156 cumulative IPC: 2.93156 (Simulation time: 0 hr 0 min 20 sec) 
Heartbeat CPU 0 instructions: 20000001 cycles: 7119982 heartbeat IPC: 2.69627 cumulative IPC: 2.809 (Simulation time: 0 hr 0 min 41 sec) 
Heartbeat CPU 0 instructions: 30000001 cycles: 10483740 heartbeat IPC: 2.97287 cumulative IPC: 2.86157 (Simulation time: 0 hr 1 min 2 sec) 
Heartbeat CPU 0 instructions: 40000003 cycles: 14353883 heartbeat IPC: 2.58388 cumulative IPC: 2.7867 (Simulation time: 0 hr 1 min 24 sec) 
Heartbeat CPU 0 instructions: 50000003 cycles: 17652222 heartbeat IPC: 3.03183 cumulative IPC: 2.8325 (Simulation time: 0 hr 1 min 45 sec) 

Warmup complete CPU 0 instructions: 50000003 cycles: 17652222 (Simulation time: 0 hr 1 min 45 sec) 

Heartbeat CPU 0 instructions: 60000000 cycles: 26825700 heartbeat IPC: 1.0901 cumulative IPC: 1.0901 (Simulation time: 0 hr 2 min 7 sec) 
Heartbeat CPU 0 instructions: 70000000 cycles: 33335371 heartbeat IPC: 1.53618 cumulative IPC: 1.27525 (Simulation time: 0 hr 2 min 26 sec) 
Heartbeat CPU 0 instructions: 80000002 cycles: 42762255 heartbeat IPC: 1.0608 cumulative IPC: 1.19474 (Simulation time: 0 hr 2 min 50 sec) 
Heartbeat CPU 0 instructions: 90000000 cycles: 49130509 heartbeat IPC: 1.57029 cumulative IPC: 1.27072 (Simulation time: 0 hr 3 min 9 sec) 
Heartbeat CPU 0 instructions: 100000002 cycles: 58092893 heartbeat IPC: 1.11577 cumulative IPC: 1.23638 (Simulation time: 0 hr 3 min 29 sec) 
Finished CPU 0 instructions: 50000003 cycles: 40440672 cumulative IPC: 1.23638 (Simulation time: 0 hr 3 min 29 sec) 

ChampSim completed all CPUs

Region of Interest Statistics

CPU 0 cumulative IPC: 1.23638 instructions: 50000003 cycles: 40440672
L1D TOTAL     ACCESS:   21299954  HIT:   20463446  MISS:     836508
L1D LOAD      ACCESS:    8847891  HIT:    8454199  MISS:     393692
L1D RFO       ACCESS:    4044870  HIT:    3986039  MISS:      58831
L1D PREFETCH  ACCESS:    8407193  HIT:    8023208  MISS:     383985
L1D WRITEBACK ACCESS:          0  HIT:          0  MISS:          0
L1D PREFETCH  REQUESTED:   19932958  ISSUED:   19378906  USEFUL:     287505  USELESS:     617707
L1D AVERAGE MISS LATENCY: 46.6553 cycles
L1I TOTAL     ACCESS:    9633146  HIT:    9239301  MISS:     393845
L1I LOAD      ACCESS:    8961311  HIT:    8913024  MISS:      48287
L1I RFO       ACCESS:          0  HIT:          0  MISS:          0
L1I PREFETCH  ACCESS:     671835  HIT:     326277  MISS:     345558
L1I WRITEBACK ACCESS:          0  HIT:          0  MISS:          0
L1I PREFETCH  REQUESTED:   15140840  ISSUED:    3625933  USEFUL:     555745  USELESS:     174788
L1I AVERAGE MISS LATENCY: 20.5527 cycles
L2C TOTAL     ACCESS:    1895857  HIT:    1594357  MISS:     301500
L2C LOAD      ACCESS:     417143  HIT:     295238  MISS:     121905
L2C RFO       ACCESS:      58027  HIT:      21594  MISS:      36433
L2C PREFETCH  ACCESS:    1231094  HIT:    1088191  MISS:     142903
L2C WRITEBACK ACCESS:     189593  HIT:     189334  MISS:        259
L2C PREFETCH  REQUESTED:    3090841  ISSUED:    3009301  USEFUL:      32656  USELESS:     279945
L2C AVERAGE MISS LATENCY: 100.475 cycles
LLC TOTAL     ACCESS:     831600  HIT:     638325  MISS:     193275
LLC LOAD      ACCESS:     121537  HIT:      77960  MISS:      43577
LLC RFO       ACCESS:      36433  HIT:       8351  MISS:      28082
LLC PREFETCH  ACCESS:     567790  HIT:     446835  MISS:     120955
LLC WRITEBACK ACCESS:     105840  HIT:     105179  MISS:        661
LLC PREFETCH  REQUESTED:          0  ISSUED:          0  USEFUL:      58252  USELESS:     153831
LLC AVERAGE MISS LATENCY: 180.02 cycles
Major fault: 0 Minor fault: 3433
CPU 0 L1D next line prefetcher final stats

DRAM Statistics
 CHANNEL 0
 RQ ROW_BUFFER_HIT:      46636  ROW_BUFFER_MISS:     145972
 DBUS_CONGESTED:     115694
 WQ ROW_BUFFER_HIT:      16091  ROW_BUFFER_MISS:      64401  FULL:          0

 AVG_CONGESTED_CYCLE: 5

CPU 0 Branch Prediction Accuracy: 97.9037% MPKI: 3.63418 Average ROB Occupancy at Mispredict: 82.7141

Branch types
NOT_BRANCH: 41331389 82.6628%
BRANCH_DIRECT_JUMP: 455615 0.91123%
BRANCH_INDIRECT: 20390 0.04078%
BRANCH_CONDITIONAL: 6745374 13.4907%
BRANCH_DIRECT_CALL: 494532 0.989064%
BRANCH_INDIRECT_CALL: 228815 0.45763%
BRANCH_RETURN: 723560 1.44712%
BRANCH_OTHER: 0 0%

