Initialize SIGNATURE TABLE
ST_SET: 1
ST_WAY: 256
ST_TAG_BIT: 16
ST_TAG_MASK: ffff

Initialize PATTERN TABLE
PT_SET: 512
PT_WAY: 4
SIG_DELTA_BIT: 7
C_SIG_BIT: 4
C_DELTA_BIT: 4

Initialize PREFETCH FILTER
FILTER_SET: 1024

*** ChampSim Multicore Out-of-Order Simulator ***

Warmup Instructions: 50000000
Simulation Instructions: 50000000
Number of CPUs: 1
LLC sets: 2048
LLC ways: 16
Off-chip DRAM Size: 4096 MB Channels: 1 Width: 64-bit Data Rate: 3200 MT/s

CPU 0 runs /home/tongjie/ChampSim-master/ipc1_public/server_025.champsimtrace.xz
CPU 0 L1D next line prefetcher
Heartbeat CPU 0 instructions: 10000003 cycles: 3537693 heartbeat IPC: 2.8267 cumulative IPC: 2.8267 (Simulation time: 0 hr 0 min 27 sec) 
Heartbeat CPU 0 instructions: 20000000 cycles: 7082583 heartbeat IPC: 2.82096 cumulative IPC: 2.82383 (Simulation time: 0 hr 0 min 53 sec) 
Heartbeat CPU 0 instructions: 30000001 cycles: 10619825 heartbeat IPC: 2.82706 cumulative IPC: 2.82491 (Simulation time: 0 hr 1 min 20 sec) 
Heartbeat CPU 0 instructions: 40000003 cycles: 14162701 heartbeat IPC: 2.82257 cumulative IPC: 2.82432 (Simulation time: 0 hr 1 min 47 sec) 
Heartbeat CPU 0 instructions: 50000001 cycles: 17703745 heartbeat IPC: 2.82403 cumulative IPC: 2.82426 (Simulation time: 0 hr 2 min 13 sec) 

Warmup complete CPU 0 instructions: 50000001 cycles: 17703745 (Simulation time: 0 hr 2 min 13 sec) 

Heartbeat CPU 0 instructions: 60000002 cycles: 25430815 heartbeat IPC: 1.29415 cumulative IPC: 1.29415 (Simulation time: 0 hr 2 min 41 sec) 
Heartbeat CPU 0 instructions: 70000000 cycles: 33215637 heartbeat IPC: 1.28455 cumulative IPC: 1.28933 (Simulation time: 0 hr 3 min 8 sec) 
Heartbeat CPU 0 instructions: 80000002 cycles: 40896976 heartbeat IPC: 1.30186 cumulative IPC: 1.29348 (Simulation time: 0 hr 3 min 36 sec) 
Heartbeat CPU 0 instructions: 90000001 cycles: 48048983 heartbeat IPC: 1.39821 cumulative IPC: 1.31816 (Simulation time: 0 hr 4 min 2 sec) 
Heartbeat CPU 0 instructions: 100000003 cycles: 54756697 heartbeat IPC: 1.49082 cumulative IPC: 1.34942 (Simulation time: 0 hr 4 min 27 sec) 
Finished CPU 0 instructions: 50000002 cycles: 37052952 cumulative IPC: 1.34942 (Simulation time: 0 hr 4 min 27 sec) 

ChampSim completed all CPUs

Region of Interest Statistics

CPU 0 cumulative IPC: 1.34942 instructions: 50000002 cycles: 37052952
L1D TOTAL     ACCESS:   20507413  HIT:   19081804  MISS:    1425609
L1D LOAD      ACCESS:    7215902  HIT:    6598137  MISS:     617765
L1D RFO       ACCESS:    6387515  HIT:    6139106  MISS:     248409
L1D PREFETCH  ACCESS:    6903996  HIT:    6344561  MISS:     559435
L1D WRITEBACK ACCESS:          0  HIT:          0  MISS:          0
L1D PREFETCH  REQUESTED:   16773209  ISSUED:   16421031  USEFUL:     302322  USELESS:     914845
L1D AVERAGE MISS LATENCY: 23.1013 cycles
L1I TOTAL     ACCESS:   13535061  HIT:   10060865  MISS:    3474196
L1I LOAD      ACCESS:    9459234  HIT:    8911035  MISS:     548199
L1I RFO       ACCESS:          0  HIT:          0  MISS:          0
L1I PREFETCH  ACCESS:    4075827  HIT:    1149830  MISS:    2925997
L1I WRITEBACK ACCESS:          0  HIT:          0  MISS:          0
L1I PREFETCH  REQUESTED:  109745480  ISSUED:   24253521  USEFUL:    4135842  USELESS:    1891605
L1I AVERAGE MISS LATENCY: 17.6424 cycles
L2C TOTAL     ACCESS:    6698852  HIT:    6056555  MISS:     642297
L2C LOAD      ACCESS:    1057702  HIT:     832832  MISS:     224870
L2C RFO       ACCESS:     246840  HIT:     169771  MISS:      77069
L2C PREFETCH  ACCESS:    4897619  HIT:    4561861  MISS:     335758
L2C WRITEBACK ACCESS:     496691  HIT:     492091  MISS:       4600
L2C PREFETCH  REQUESTED:    9579480  ISSUED:    9304318  USEFUL:      62429  USELESS:     650723
L2C AVERAGE MISS LATENCY: 37.5914 cycles
LLC TOTAL     ACCESS:    2073656  HIT:    2045443  MISS:      28213
LLC LOAD      ACCESS:     224701  HIT:     221203  MISS:       3498
LLC RFO       ACCESS:      77068  HIT:      66251  MISS:      10817
LLC PREFETCH  ACCESS:    1642246  HIT:    1628559  MISS:      13687
LLC WRITEBACK ACCESS:     129641  HIT:     129430  MISS:        211
LLC PREFETCH  REQUESTED:          0  ISSUED:          0  USEFUL:       4368  USELESS:      20201
LLC AVERAGE MISS LATENCY: 178.905 cycles
Major fault: 0 Minor fault: 2457
CPU 0 L1D next line prefetcher final stats

DRAM Statistics
 CHANNEL 0
 RQ ROW_BUFFER_HIT:       9216  ROW_BUFFER_MISS:      18778
 DBUS_CONGESTED:      18534
 WQ ROW_BUFFER_HIT:       1276  ROW_BUFFER_MISS:      11303  FULL:          0

 AVG_CONGESTED_CYCLE: 6

CPU 0 Branch Prediction Accuracy: 99.8142% MPKI: 0.34676 Average ROB Occupancy at Mispredict: 170.26

Branch types
NOT_BRANCH: 40668804 81.3376%
BRANCH_DIRECT_JUMP: 531700 1.0634%
BRANCH_INDIRECT: 199025 0.39805%
BRANCH_CONDITIONAL: 6211478 12.423%
BRANCH_DIRECT_CALL: 1010910 2.02182%
BRANCH_INDIRECT_CALL: 183501 0.367002%
BRANCH_RETURN: 1194412 2.38882%
BRANCH_OTHER: 0 0%

