Initialize SIGNATURE TABLE
ST_SET: 1
ST_WAY: 256
ST_TAG_BIT: 16
ST_TAG_MASK: ffff

Initialize PATTERN TABLE
PT_SET: 512
PT_WAY: 4
SIG_DELTA_BIT: 7
C_SIG_BIT: 4
C_DELTA_BIT: 4

Initialize PREFETCH FILTER
FILTER_SET: 1024

*** ChampSim Multicore Out-of-Order Simulator ***

Warmup Instructions: 50000000
Simulation Instructions: 50000000
Number of CPUs: 1
LLC sets: 2048
LLC ways: 16
Off-chip DRAM Size: 4096 MB Channels: 1 Width: 64-bit Data Rate: 3200 MT/s

CPU 0 runs /home/tongjie/ChampSim-master/ipc1_public/server_017.champsimtrace.xz
CPU 0 L1D next line prefetcher
Heartbeat CPU 0 instructions: 10000001 cycles: 3625663 heartbeat IPC: 2.75812 cumulative IPC: 2.75812 (Simulation time: 0 hr 0 min 26 sec) 
Heartbeat CPU 0 instructions: 20000000 cycles: 7249089 heartbeat IPC: 2.75982 cumulative IPC: 2.75897 (Simulation time: 0 hr 0 min 51 sec) 
Heartbeat CPU 0 instructions: 30000002 cycles: 10879195 heartbeat IPC: 2.75474 cumulative IPC: 2.75756 (Simulation time: 0 hr 1 min 16 sec) 
Heartbeat CPU 0 instructions: 40000000 cycles: 14504301 heartbeat IPC: 2.75854 cumulative IPC: 2.7578 (Simulation time: 0 hr 1 min 42 sec) 
Heartbeat CPU 0 instructions: 50000001 cycles: 18140590 heartbeat IPC: 2.75006 cumulative IPC: 2.75625 (Simulation time: 0 hr 2 min 7 sec) 

Warmup complete CPU 0 instructions: 50000001 cycles: 18140590 (Simulation time: 0 hr 2 min 7 sec) 

Heartbeat CPU 0 instructions: 60000002 cycles: 36140905 heartbeat IPC: 0.555546 cumulative IPC: 0.555546 (Simulation time: 0 hr 2 min 42 sec) 
Heartbeat CPU 0 instructions: 70000002 cycles: 54366439 heartbeat IPC: 0.548681 cumulative IPC: 0.552092 (Simulation time: 0 hr 3 min 16 sec) 
Heartbeat CPU 0 instructions: 80000000 cycles: 72288451 heartbeat IPC: 0.557973 cumulative IPC: 0.554038 (Simulation time: 0 hr 3 min 50 sec) 
Heartbeat CPU 0 instructions: 90000003 cycles: 95928017 heartbeat IPC: 0.42302 cumulative IPC: 0.514222 (Simulation time: 0 hr 4 min 25 sec) 
Heartbeat CPU 0 instructions: 100000003 cycles: 116324499 heartbeat IPC: 0.490281 cumulative IPC: 0.509248 (Simulation time: 0 hr 4 min 59 sec) 
Finished CPU 0 instructions: 50000002 cycles: 98183909 cumulative IPC: 0.509248 (Simulation time: 0 hr 4 min 59 sec) 

ChampSim completed all CPUs

Region of Interest Statistics

CPU 0 cumulative IPC: 0.509248 instructions: 50000002 cycles: 98183909
L1D TOTAL     ACCESS:   18427608  HIT:   16262055  MISS:    2165553
L1D LOAD      ACCESS:    7041609  HIT:    6286640  MISS:     754969
L1D RFO       ACCESS:    5545311  HIT:    4686202  MISS:     859109
L1D PREFETCH  ACCESS:    5840688  HIT:    5289213  MISS:     551475
L1D WRITEBACK ACCESS:          0  HIT:          0  MISS:          0
L1D PREFETCH  REQUESTED:   16512322  ISSUED:   16119833  USEFUL:     596571  USELESS:     705996
L1D AVERAGE MISS LATENCY: 174.005 cycles
L1I TOTAL     ACCESS:   12942348  HIT:   10705584  MISS:    2236764
L1I LOAD      ACCESS:    9868892  HIT:    9693454  MISS:     175438
L1I RFO       ACCESS:          0  HIT:          0  MISS:          0
L1I PREFETCH  ACCESS:    3073456  HIT:    1012130  MISS:    2061326
L1I WRITEBACK ACCESS:          0  HIT:          0  MISS:          0
L1I PREFETCH  REQUESTED:   76908390  ISSUED:   18838414  USEFUL:    4100368  USELESS:     222221
L1I AVERAGE MISS LATENCY: 18.4945 cycles
L2C TOTAL     ACCESS:    6404528  HIT:    4560790  MISS:    1843738
L2C LOAD      ACCESS:     668968  HIT:     326001  MISS:     342967
L2C RFO       ACCESS:     858666  HIT:      17418  MISS:     841248
L2C PREFETCH  ACCESS:    3754040  HIT:    3096446  MISS:     657594
L2C WRITEBACK ACCESS:    1122854  HIT:    1120925  MISS:       1929
L2C PREFETCH  REQUESTED:    9008047  ISSUED:    8868957  USEFUL:      99668  USELESS:    1192441
L2C AVERAGE MISS LATENCY: 209.197 cycles
LLC TOTAL     ACCESS:    3991941  HIT:    2460599  MISS:    1531342
LLC LOAD      ACCESS:     342923  HIT:     181774  MISS:     161149
LLC RFO       ACCESS:     841245  HIT:     122590  MISS:     718655
LLC PREFETCH  ACCESS:    1746250  HIT:    1096744  MISS:     649506
LLC WRITEBACK ACCESS:    1061523  HIT:    1059491  MISS:       2032
LLC PREFETCH  REQUESTED:          0  ISSUED:          0  USEFUL:      87821  USELESS:    1120414
LLC AVERAGE MISS LATENCY: 259.875 cycles
Major fault: 0 Minor fault: 24694
CPU 0 L1D next line prefetcher final stats

DRAM Statistics
 CHANNEL 0
 RQ ROW_BUFFER_HIT:     370909  ROW_BUFFER_MISS:    1158230
 DBUS_CONGESTED:    1453280
 WQ ROW_BUFFER_HIT:     266819  ROW_BUFFER_MISS:     610314  FULL:          0

 AVG_CONGESTED_CYCLE: 6

CPU 0 Branch Prediction Accuracy: 99.2833% MPKI: 1.20568 Average ROB Occupancy at Mispredict: 178.149

Branch types
NOT_BRANCH: 41588350 83.1767%
BRANCH_DIRECT_JUMP: 464501 0.929002%
BRANCH_INDIRECT: 45704 0.091408%
BRANCH_CONDITIONAL: 6147409 12.2948%
BRANCH_DIRECT_CALL: 675450 1.3509%
BRANCH_INDIRECT_CALL: 201532 0.403064%
BRANCH_RETURN: 876985 1.75397%
BRANCH_OTHER: 0 0%

