Initialize SIGNATURE TABLE
ST_SET: 1
ST_WAY: 256
ST_TAG_BIT: 16
ST_TAG_MASK: ffff

Initialize PATTERN TABLE
PT_SET: 512
PT_WAY: 4
SIG_DELTA_BIT: 7
C_SIG_BIT: 4
C_DELTA_BIT: 4

Initialize PREFETCH FILTER
FILTER_SET: 1024

*** ChampSim Multicore Out-of-Order Simulator ***

Warmup Instructions: 50000000
Simulation Instructions: 50000000
Number of CPUs: 1
LLC sets: 2048
LLC ways: 16
Off-chip DRAM Size: 4096 MB Channels: 1 Width: 64-bit Data Rate: 3200 MT/s

CPU 0 runs /home/tongjie/ChampSim-master/ipc1_public/server_020.champsimtrace.xz
CPU 0 L1D next line prefetcher
Heartbeat CPU 0 instructions: 10000003 cycles: 3626258 heartbeat IPC: 2.75766 cumulative IPC: 2.75766 (Simulation time: 0 hr 0 min 29 sec) 
Heartbeat CPU 0 instructions: 20000002 cycles: 7256673 heartbeat IPC: 2.75451 cumulative IPC: 2.75608 (Simulation time: 0 hr 0 min 58 sec) 
Heartbeat CPU 0 instructions: 30000001 cycles: 10880261 heartbeat IPC: 2.7597 cumulative IPC: 2.75729 (Simulation time: 0 hr 1 min 28 sec) 
Heartbeat CPU 0 instructions: 40000002 cycles: 14504814 heartbeat IPC: 2.75896 cumulative IPC: 2.75771 (Simulation time: 0 hr 1 min 57 sec) 
Heartbeat CPU 0 instructions: 50000001 cycles: 18142848 heartbeat IPC: 2.74874 cumulative IPC: 2.75591 (Simulation time: 0 hr 2 min 26 sec) 

Warmup complete CPU 0 instructions: 50000001 cycles: 18142848 (Simulation time: 0 hr 2 min 26 sec) 

Heartbeat CPU 0 instructions: 60000003 cycles: 37044326 heartbeat IPC: 0.529059 cumulative IPC: 0.529059 (Simulation time: 0 hr 3 min 3 sec) 
Heartbeat CPU 0 instructions: 70000002 cycles: 56031456 heartbeat IPC: 0.526672 cumulative IPC: 0.527863 (Simulation time: 0 hr 3 min 41 sec) 
Heartbeat CPU 0 instructions: 80000002 cycles: 74924612 heartbeat IPC: 0.529292 cumulative IPC: 0.528339 (Simulation time: 0 hr 4 min 18 sec) 
Heartbeat CPU 0 instructions: 90000001 cycles: 93773597 heartbeat IPC: 0.530532 cumulative IPC: 0.528885 (Simulation time: 0 hr 4 min 55 sec) 
Heartbeat CPU 0 instructions: 100000002 cycles: 112659355 heartbeat IPC: 0.5295 cumulative IPC: 0.529008 (Simulation time: 0 hr 5 min 28 sec) 
Finished CPU 0 instructions: 50000001 cycles: 94516507 cumulative IPC: 0.529008 (Simulation time: 0 hr 5 min 28 sec) 

ChampSim completed all CPUs

Region of Interest Statistics

CPU 0 cumulative IPC: 0.529008 instructions: 50000001 cycles: 94516507
L1D TOTAL     ACCESS:   19370429  HIT:   17166180  MISS:    2204249
L1D LOAD      ACCESS:    7390505  HIT:    6662357  MISS:     728148
L1D RFO       ACCESS:    5857312  HIT:    4911225  MISS:     946087
L1D PREFETCH  ACCESS:    6122612  HIT:    5592598  MISS:     530014
L1D WRITEBACK ACCESS:          0  HIT:          0  MISS:          0
L1D PREFETCH  REQUESTED:   16858555  ISSUED:   16464322  USEFUL:     600168  USELESS:     683160
L1D AVERAGE MISS LATENCY: 175.041 cycles
L1I TOTAL     ACCESS:   12945812  HIT:   10105026  MISS:    2840786
L1I LOAD      ACCESS:   10103737  HIT:    8823910  MISS:    1279827
L1I RFO       ACCESS:          0  HIT:          0  MISS:          0
L1I PREFETCH  ACCESS:    2842075  HIT:    1281116  MISS:    1560959
L1I WRITEBACK ACCESS:          0  HIT:          0  MISS:          0
L1I PREFETCH  REQUESTED:   65205920  ISSUED:   16868421  USEFUL:    2216268  USELESS:     821747
L1I AVERAGE MISS LATENCY: 17.5581 cycles
L2C TOTAL     ACCESS:    7925361  HIT:    6071868  MISS:    1853493
L2C LOAD      ACCESS:    1746518  HIT:    1426180  MISS:     320338
L2C RFO       ACCESS:     945688  HIT:      20242  MISS:     925446
L2C PREFETCH  ACCESS:    4069495  HIT:    3464477  MISS:     605018
L2C WRITEBACK ACCESS:    1163660  HIT:    1160969  MISS:       2691
L2C PREFETCH  REQUESTED:   10403838  ISSUED:   10136998  USEFUL:      66349  USELESS:    1130773
L2C AVERAGE MISS LATENCY: 214.432 cycles
LLC TOTAL     ACCESS:    4110368  HIT:    2667078  MISS:    1443290
LLC LOAD      ACCESS:     320296  HIT:     210774  MISS:     109522
LLC RFO       ACCESS:     925438  HIT:     137704  MISS:     787734
LLC PREFETCH  ACCESS:    1766883  HIT:    1222810  MISS:     544073
LLC WRITEBACK ACCESS:    1097751  HIT:    1095790  MISS:       1961
LLC PREFETCH  REQUESTED:          0  ISSUED:          0  USEFUL:      75203  USELESS:    1039519
LLC AVERAGE MISS LATENCY: 273.984 cycles
Major fault: 0 Minor fault: 22091
CPU 0 L1D next line prefetcher final stats

DRAM Statistics
 CHANNEL 0
 RQ ROW_BUFFER_HIT:     399333  ROW_BUFFER_MISS:    1041765
 DBUS_CONGESTED:    1414273
 WQ ROW_BUFFER_HIT:     266087  ROW_BUFFER_MISS:     623354  FULL:          0

 AVG_CONGESTED_CYCLE: 6

CPU 0 Branch Prediction Accuracy: 99.712% MPKI: 0.47638 Average ROB Occupancy at Mispredict: 196.969

Branch types
NOT_BRANCH: 41729374 83.4587%
BRANCH_DIRECT_JUMP: 458219 0.916438%
BRANCH_INDIRECT: 49088 0.098176%
BRANCH_CONDITIONAL: 5938510 11.877%
BRANCH_DIRECT_CALL: 745128 1.49026%
BRANCH_INDIRECT_CALL: 167106 0.334212%
BRANCH_RETURN: 912219 1.82444%
BRANCH_OTHER: 0 0%

