Initialize SIGNATURE TABLE
ST_SET: 1
ST_WAY: 256
ST_TAG_BIT: 16
ST_TAG_MASK: ffff

Initialize PATTERN TABLE
PT_SET: 512
PT_WAY: 4
SIG_DELTA_BIT: 7
C_SIG_BIT: 4
C_DELTA_BIT: 4

Initialize PREFETCH FILTER
FILTER_SET: 1024

*** ChampSim Multicore Out-of-Order Simulator ***

Warmup Instructions: 50000000
Simulation Instructions: 50000000
Number of CPUs: 1
LLC sets: 2048
LLC ways: 16
Off-chip DRAM Size: 4096 MB Channels: 1 Width: 64-bit Data Rate: 3200 MT/s

CPU 0 runs /home/tongjie/ChampSim-master/ipc1_public/server_019.champsimtrace.xz
CPU 0 L1D next line prefetcher
Heartbeat CPU 0 instructions: 10000002 cycles: 3626333 heartbeat IPC: 2.75761 cumulative IPC: 2.75761 (Simulation time: 0 hr 0 min 26 sec) 
Heartbeat CPU 0 instructions: 20000003 cycles: 7253884 heartbeat IPC: 2.75668 cumulative IPC: 2.75714 (Simulation time: 0 hr 0 min 51 sec) 
Heartbeat CPU 0 instructions: 30000002 cycles: 10880049 heartbeat IPC: 2.75773 cumulative IPC: 2.75734 (Simulation time: 0 hr 1 min 17 sec) 
Heartbeat CPU 0 instructions: 40000002 cycles: 14517899 heartbeat IPC: 2.74888 cumulative IPC: 2.75522 (Simulation time: 0 hr 1 min 42 sec) 
Heartbeat CPU 0 instructions: 50000001 cycles: 18144202 heartbeat IPC: 2.75763 cumulative IPC: 2.7557 (Simulation time: 0 hr 2 min 8 sec) 

Warmup complete CPU 0 instructions: 50000001 cycles: 18144202 (Simulation time: 0 hr 2 min 8 sec) 

Heartbeat CPU 0 instructions: 60000000 cycles: 38332251 heartbeat IPC: 0.495343 cumulative IPC: 0.495343 (Simulation time: 0 hr 2 min 44 sec) 
Heartbeat CPU 0 instructions: 70000002 cycles: 62268122 heartbeat IPC: 0.417783 cumulative IPC: 0.453269 (Simulation time: 0 hr 3 min 19 sec) 
Heartbeat CPU 0 instructions: 80000001 cycles: 83146634 heartbeat IPC: 0.478961 cumulative IPC: 0.461521 (Simulation time: 0 hr 3 min 53 sec) 
Heartbeat CPU 0 instructions: 90000002 cycles: 101207222 heartbeat IPC: 0.553692 cumulative IPC: 0.481562 (Simulation time: 0 hr 4 min 27 sec) 
Heartbeat CPU 0 instructions: 100000002 cycles: 119311627 heartbeat IPC: 0.552352 cumulative IPC: 0.49423 (Simulation time: 0 hr 5 min 2 sec) 
Finished CPU 0 instructions: 50000001 cycles: 101167425 cumulative IPC: 0.49423 (Simulation time: 0 hr 5 min 2 sec) 

ChampSim completed all CPUs

Region of Interest Statistics

CPU 0 cumulative IPC: 0.49423 instructions: 50000001 cycles: 101167425
L1D TOTAL     ACCESS:   18354924  HIT:   16131363  MISS:    2223561
L1D LOAD      ACCESS:    6992757  HIT:    6229987  MISS:     762770
L1D RFO       ACCESS:    5541923  HIT:    4640030  MISS:     901893
L1D PREFETCH  ACCESS:    5820244  HIT:    5261346  MISS:     558898
L1D WRITEBACK ACCESS:          0  HIT:          0  MISS:          0
L1D PREFETCH  REQUESTED:   16501325  ISSUED:   16105548  USEFUL:     608766  USELESS:     698957
L1D AVERAGE MISS LATENCY: 185.131 cycles
L1I TOTAL     ACCESS:   12800662  HIT:   10604318  MISS:    2196344
L1I LOAD      ACCESS:    9828357  HIT:    9628947  MISS:     199410
L1I RFO       ACCESS:          0  HIT:          0  MISS:          0
L1I PREFETCH  ACCESS:    2972305  HIT:     975371  MISS:    1996934
L1I WRITEBACK ACCESS:          0  HIT:          0  MISS:          0
L1I PREFETCH  REQUESTED:   77470900  ISSUED:   19169470  USEFUL:    4134174  USELESS:     169784
L1I AVERAGE MISS LATENCY: 18.924 cycles
L2C TOTAL     ACCESS:    6489786  HIT:    4598729  MISS:    1891057
L2C LOAD      ACCESS:     700243  HIT:     350554  MISS:     349689
L2C RFO       ACCESS:     901479  HIT:      18220  MISS:     883259
L2C PREFETCH  ACCESS:    3713453  HIT:    3057575  MISS:     655878
L2C WRITEBACK ACCESS:    1174611  HIT:    1172380  MISS:       2231
L2C PREFETCH  REQUESTED:    9289325  ISSUED:    9129223  USEFUL:      88601  USELESS:    1196642
L2C AVERAGE MISS LATENCY: 222.55 cycles
LLC TOTAL     ACCESS:    4126631  HIT:    2504289  MISS:    1622342
LLC LOAD      ACCESS:     349603  HIT:     181150  MISS:     168453
LLC RFO       ACCESS:     883256  HIT:     114801  MISS:     768455
LLC PREFETCH  ACCESS:    1783119  HIT:    1099979  MISS:     683140
LLC WRITEBACK ACCESS:    1110653  HIT:    1108359  MISS:       2294
LLC PREFETCH  REQUESTED:          0  ISSUED:          0  USEFUL:      87868  USELESS:    1106167
LLC AVERAGE MISS LATENCY: 270.401 cycles
Major fault: 0 Minor fault: 25691
CPU 0 L1D next line prefetcher final stats

DRAM Statistics
 CHANNEL 0
 RQ ROW_BUFFER_HIT:     388565  ROW_BUFFER_MISS:    1231171
 DBUS_CONGESTED:    1582667
 WQ ROW_BUFFER_HIT:     277238  ROW_BUFFER_MISS:     657925  FULL:          0

 AVG_CONGESTED_CYCLE: 6

CPU 0 Branch Prediction Accuracy: 99.2186% MPKI: 1.32192 Average ROB Occupancy at Mispredict: 174.319

Branch types
NOT_BRANCH: 41540785 83.0816%
BRANCH_DIRECT_JUMP: 462384 0.924768%
BRANCH_INDIRECT: 45460 0.09092%
BRANCH_CONDITIONAL: 6209281 12.4186%
BRANCH_DIRECT_CALL: 666241 1.33248%
BRANCH_INDIRECT_CALL: 204728 0.409456%
BRANCH_RETURN: 870978 1.74196%
BRANCH_OTHER: 0 0%

