Initialize SIGNATURE TABLE
ST_SET: 1
ST_WAY: 256
ST_TAG_BIT: 16
ST_TAG_MASK: ffff

Initialize PATTERN TABLE
PT_SET: 512
PT_WAY: 4
SIG_DELTA_BIT: 7
C_SIG_BIT: 4
C_DELTA_BIT: 4

Initialize PREFETCH FILTER
FILTER_SET: 1024

*** ChampSim Multicore Out-of-Order Simulator ***

Warmup Instructions: 50000000
Simulation Instructions: 50000000
Number of CPUs: 1
LLC sets: 2048
LLC ways: 16
Off-chip DRAM Size: 4096 MB Channels: 1 Width: 64-bit Data Rate: 3200 MT/s

CPU 0 runs /home/tongjie/ChampSim-master/ipc1_public/server_009.champsimtrace.xz
CPU 0 L1D next line prefetcher
Heartbeat CPU 0 instructions: 10000003 cycles: 3203447 heartbeat IPC: 3.12164 cumulative IPC: 3.12164 (Simulation time: 0 hr 0 min 25 sec) 
Heartbeat CPU 0 instructions: 20000001 cycles: 6399913 heartbeat IPC: 3.12845 cumulative IPC: 3.12504 (Simulation time: 0 hr 0 min 50 sec) 
Heartbeat CPU 0 instructions: 30000002 cycles: 9610814 heartbeat IPC: 3.11439 cumulative IPC: 3.12148 (Simulation time: 0 hr 1 min 15 sec) 
Heartbeat CPU 0 instructions: 40000003 cycles: 12818229 heartbeat IPC: 3.11778 cumulative IPC: 3.12056 (Simulation time: 0 hr 1 min 39 sec) 
Heartbeat CPU 0 instructions: 50000000 cycles: 16081940 heartbeat IPC: 3.064 cumulative IPC: 3.10908 (Simulation time: 0 hr 2 min 4 sec) 

Warmup complete CPU 0 instructions: 50000004 cycles: 16081941 (Simulation time: 0 hr 2 min 4 sec) 

Heartbeat CPU 0 instructions: 60000002 cycles: 33144726 heartbeat IPC: 0.586071 cumulative IPC: 0.586071 (Simulation time: 0 hr 2 min 35 sec) 
Heartbeat CPU 0 instructions: 70000003 cycles: 54741147 heartbeat IPC: 0.46304 cumulative IPC: 0.517341 (Simulation time: 0 hr 3 min 12 sec) 
Heartbeat CPU 0 instructions: 80000000 cycles: 64031801 heartbeat IPC: 1.07635 cumulative IPC: 0.625653 (Simulation time: 0 hr 3 min 36 sec) 
Heartbeat CPU 0 instructions: 90000001 cycles: 73488739 heartbeat IPC: 1.05742 cumulative IPC: 0.696782 (Simulation time: 0 hr 4 min 1 sec) 
Heartbeat CPU 0 instructions: 100000000 cycles: 82780653 heartbeat IPC: 1.0762 cumulative IPC: 0.74964 (Simulation time: 0 hr 4 min 22 sec) 
Finished CPU 0 instructions: 50000000 cycles: 66698713 cumulative IPC: 0.74964 (Simulation time: 0 hr 4 min 22 sec) 

ChampSim completed all CPUs

Region of Interest Statistics

CPU 0 cumulative IPC: 0.74964 instructions: 50000000 cycles: 66698713
L1D TOTAL     ACCESS:   22196423  HIT:   17616476  MISS:    4579947
L1D LOAD      ACCESS:    8903596  HIT:    6628123  MISS:    2275473
L1D RFO       ACCESS:    4598695  HIT:    4493911  MISS:     104784
L1D PREFETCH  ACCESS:    8694132  HIT:    6494442  MISS:    2199690
L1D WRITEBACK ACCESS:          0  HIT:          0  MISS:          0
L1D PREFETCH  REQUESTED:   17720420  ISSUED:   17466289  USEFUL:     256201  USELESS:    2431968
L1D AVERAGE MISS LATENCY: 20.0284 cycles
L1I TOTAL     ACCESS:   12178036  HIT:   10613057  MISS:    1564979
L1I LOAD      ACCESS:   10695762  HIT:   10112832  MISS:     582930
L1I RFO       ACCESS:          0  HIT:          0  MISS:          0
L1I PREFETCH  ACCESS:    1482274  HIT:     500225  MISS:     982049
L1I WRITEBACK ACCESS:          0  HIT:          0  MISS:          0
L1I PREFETCH  REQUESTED:   42652090  ISSUED:    9444259  USEFUL:    1161462  USELESS:     932221
L1I AVERAGE MISS LATENCY: 27.1373 cycles
L2C TOTAL     ACCESS:    7970272  HIT:    6993467  MISS:     976805
L2C LOAD      ACCESS:    2821610  HIT:    2296738  MISS:     524872
L2C RFO       ACCESS:     103771  HIT:      64306  MISS:      39465
L2C PREFETCH  ACCESS:    4788036  HIT:    4376599  MISS:     411437
L2C WRITEBACK ACCESS:     256855  HIT:     255824  MISS:       1031
L2C PREFETCH  REQUESTED:   10903737  ISSUED:   10434309  USEFUL:     106759  USELESS:     816965
L2C AVERAGE MISS LATENCY: 42.2667 cycles
LLC TOTAL     ACCESS:    2651863  HIT:    2520911  MISS:     130952
LLC LOAD      ACCESS:     514677  HIT:     486798  MISS:      27879
LLC RFO       ACCESS:      39461  HIT:      30818  MISS:       8643
LLC PREFETCH  ACCESS:    1962188  HIT:    1868016  MISS:      94172
LLC WRITEBACK ACCESS:     135537  HIT:     135279  MISS:        258
LLC PREFETCH  REQUESTED:          0  ISSUED:          0  USEFUL:      40312  USELESS:     156228
LLC AVERAGE MISS LATENCY: 163.661 cycles
Major fault: 0 Minor fault: 6351
CPU 0 L1D next line prefetcher final stats

DRAM Statistics
 CHANNEL 0
 RQ ROW_BUFFER_HIT:      25827  ROW_BUFFER_MISS:     104865
 DBUS_CONGESTED:      54201
 WQ ROW_BUFFER_HIT:       8048  ROW_BUFFER_MISS:      38696  FULL:          0

 AVG_CONGESTED_CYCLE: 5

CPU 0 Branch Prediction Accuracy: 99.4713% MPKI: 1.11484 Average ROB Occupancy at Mispredict: 90.8857

Branch types
NOT_BRANCH: 39456620 78.9132%
BRANCH_DIRECT_JUMP: 445350 0.8907%
BRANCH_INDIRECT: 131149 0.262298%
BRANCH_CONDITIONAL: 8130198 16.2604%
BRANCH_DIRECT_CALL: 732485 1.46497%
BRANCH_INDIRECT_CALL: 172369 0.344738%
BRANCH_RETURN: 931558 1.86312%
BRANCH_OTHER: 0 0%

