Initialize SIGNATURE TABLE
ST_SET: 1
ST_WAY: 256
ST_TAG_BIT: 16
ST_TAG_MASK: ffff

Initialize PATTERN TABLE
PT_SET: 512
PT_WAY: 4
SIG_DELTA_BIT: 7
C_SIG_BIT: 4
C_DELTA_BIT: 4

Initialize PREFETCH FILTER
FILTER_SET: 1024

*** ChampSim Multicore Out-of-Order Simulator ***

Warmup Instructions: 50000000
Simulation Instructions: 50000000
Number of CPUs: 1
LLC sets: 2048
LLC ways: 16
Off-chip DRAM Size: 4096 MB Channels: 1 Width: 64-bit Data Rate: 3200 MT/s

CPU 0 runs /home/tongjie/ChampSim-master/ipc1_public/server_023.champsimtrace.xz
CPU 0 L1D next line prefetcher
Heartbeat CPU 0 instructions: 10000000 cycles: 3503751 heartbeat IPC: 2.85408 cumulative IPC: 2.85408 (Simulation time: 0 hr 0 min 26 sec) 
Heartbeat CPU 0 instructions: 20000000 cycles: 7007493 heartbeat IPC: 2.85409 cumulative IPC: 2.85409 (Simulation time: 0 hr 0 min 52 sec) 
Heartbeat CPU 0 instructions: 30000001 cycles: 10504261 heartbeat IPC: 2.85978 cumulative IPC: 2.85598 (Simulation time: 0 hr 1 min 19 sec) 
Heartbeat CPU 0 instructions: 40000003 cycles: 14006946 heartbeat IPC: 2.85495 cumulative IPC: 2.85573 (Simulation time: 0 hr 1 min 45 sec) 
Heartbeat CPU 0 instructions: 50000001 cycles: 17510936 heartbeat IPC: 2.85389 cumulative IPC: 2.85536 (Simulation time: 0 hr 2 min 12 sec) 

Warmup complete CPU 0 instructions: 50000001 cycles: 17510936 (Simulation time: 0 hr 2 min 12 sec) 

Heartbeat CPU 0 instructions: 60000002 cycles: 25086366 heartbeat IPC: 1.32006 cumulative IPC: 1.32006 (Simulation time: 0 hr 2 min 38 sec) 
Heartbeat CPU 0 instructions: 70000000 cycles: 32834981 heartbeat IPC: 1.29055 cumulative IPC: 1.30514 (Simulation time: 0 hr 3 min 4 sec) 
Heartbeat CPU 0 instructions: 80000000 cycles: 40477092 heartbeat IPC: 1.30854 cumulative IPC: 1.30627 (Simulation time: 0 hr 3 min 30 sec) 
Heartbeat CPU 0 instructions: 90000000 cycles: 48009030 heartbeat IPC: 1.32768 cumulative IPC: 1.31156 (Simulation time: 0 hr 3 min 53 sec) 
Heartbeat CPU 0 instructions: 100000003 cycles: 55639577 heartbeat IPC: 1.31052 cumulative IPC: 1.31135 (Simulation time: 0 hr 4 min 19 sec) 
Finished CPU 0 instructions: 50000002 cycles: 38128641 cumulative IPC: 1.31135 (Simulation time: 0 hr 4 min 19 sec) 

ChampSim completed all CPUs

Region of Interest Statistics

CPU 0 cumulative IPC: 1.31135 instructions: 50000002 cycles: 38128641
L1D TOTAL     ACCESS:   20019524  HIT:   18552212  MISS:    1467312
L1D LOAD      ACCESS:    7171552  HIT:    6511771  MISS:     659781
L1D RFO       ACCESS:    5997329  HIT:    5735276  MISS:     262053
L1D PREFETCH  ACCESS:    6850643  HIT:    6305165  MISS:     545478
L1D WRITEBACK ACCESS:          0  HIT:          0  MISS:          0
L1D PREFETCH  REQUESTED:   16675627  ISSUED:   16375778  USEFUL:     300873  USELESS:     849790
L1D AVERAGE MISS LATENCY: 24.1665 cycles
L1I TOTAL     ACCESS:   13808413  HIT:   10105773  MISS:    3702640
L1I LOAD      ACCESS:    9401626  HIT:    8811506  MISS:     590120
L1I RFO       ACCESS:          0  HIT:          0  MISS:          0
L1I PREFETCH  ACCESS:    4406787  HIT:    1294267  MISS:    3112520
L1I WRITEBACK ACCESS:          0  HIT:          0  MISS:          0
L1I PREFETCH  REQUESTED:  113302020  ISSUED:   24410926  USEFUL:    3845768  USELESS:    2169739
L1I AVERAGE MISS LATENCY: 17.2509 cycles
L2C TOTAL     ACCESS:    6976338  HIT:    6328867  MISS:     647471
L2C LOAD      ACCESS:    1101753  HIT:     884870  MISS:     216883
L2C RFO       ACCESS:     259769  HIT:     170086  MISS:      89683
L2C PREFETCH  ACCESS:    5115460  HIT:    4777083  MISS:     338377
L2C WRITEBACK ACCESS:     499356  HIT:     496828  MISS:       2528
L2C PREFETCH  REQUESTED:    9585285  ISSUED:    9187784  USEFUL:      70439  USELESS:     620749
L2C AVERAGE MISS LATENCY: 41.5208 cycles
LLC TOTAL     ACCESS:    2022082  HIT:    1975294  MISS:      46788
LLC LOAD      ACCESS:     216728  HIT:     210090  MISS:       6638
LLC RFO       ACCESS:      89663  HIT:      71685  MISS:      17978
LLC PREFETCH  ACCESS:    1576047  HIT:    1554108  MISS:      21939
LLC WRITEBACK ACCESS:     139644  HIT:     139411  MISS:        233
LLC PREFETCH  REQUESTED:          0  ISSUED:          0  USEFUL:       6452  USELESS:      34431
LLC AVERAGE MISS LATENCY: 181.61 cycles
Major fault: 0 Minor fault: 2766
CPU 0 L1D next line prefetcher final stats

DRAM Statistics
 CHANNEL 0
 RQ ROW_BUFFER_HIT:      14583  ROW_BUFFER_MISS:      31955
 DBUS_CONGESTED:      30444
 WQ ROW_BUFFER_HIT:       2465  ROW_BUFFER_MISS:      18592  FULL:          0

 AVG_CONGESTED_CYCLE: 6

CPU 0 Branch Prediction Accuracy: 99.6798% MPKI: 0.58608 Average ROB Occupancy at Mispredict: 122.878

Branch types
NOT_BRANCH: 40848303 81.6966%
BRANCH_DIRECT_JUMP: 548372 1.09674%
BRANCH_INDIRECT: 189802 0.379604%
BRANCH_CONDITIONAL: 6372768 12.7455%
BRANCH_DIRECT_CALL: 862207 1.72441%
BRANCH_INDIRECT_CALL: 158149 0.316298%
BRANCH_RETURN: 1020345 2.04069%
BRANCH_OTHER: 0 0%

