Initialize SIGNATURE TABLE
ST_SET: 1
ST_WAY: 256
ST_TAG_BIT: 16
ST_TAG_MASK: ffff

Initialize PATTERN TABLE
PT_SET: 512
PT_WAY: 4
SIG_DELTA_BIT: 7
C_SIG_BIT: 4
C_DELTA_BIT: 4

Initialize PREFETCH FILTER
FILTER_SET: 1024

*** ChampSim Multicore Out-of-Order Simulator ***

Warmup Instructions: 50000000
Simulation Instructions: 50000000
Number of CPUs: 1
LLC sets: 2048
LLC ways: 16
Off-chip DRAM Size: 4096 MB Channels: 1 Width: 64-bit Data Rate: 3200 MT/s

CPU 0 runs /home/tongjie/ChampSim-master/ipc1_public/server_035.champsimtrace.xz
CPU 0 L1D next line prefetcher
Heartbeat CPU 0 instructions: 10000001 cycles: 3337684 heartbeat IPC: 2.99609 cumulative IPC: 2.99609 (Simulation time: 0 hr 0 min 25 sec) 
Heartbeat CPU 0 instructions: 20000000 cycles: 6674670 heartbeat IPC: 2.99672 cumulative IPC: 2.9964 (Simulation time: 0 hr 0 min 51 sec) 
Heartbeat CPU 0 instructions: 30000000 cycles: 10008685 heartbeat IPC: 2.99939 cumulative IPC: 2.9974 (Simulation time: 0 hr 1 min 16 sec) 
Heartbeat CPU 0 instructions: 40000000 cycles: 13347595 heartbeat IPC: 2.99499 cumulative IPC: 2.99679 (Simulation time: 0 hr 1 min 41 sec) 
Heartbeat CPU 0 instructions: 50000003 cycles: 16683294 heartbeat IPC: 2.99787 cumulative IPC: 2.99701 (Simulation time: 0 hr 2 min 7 sec) 

Warmup complete CPU 0 instructions: 50000003 cycles: 16683294 (Simulation time: 0 hr 2 min 7 sec) 

Heartbeat CPU 0 instructions: 60000001 cycles: 25216248 heartbeat IPC: 1.17193 cumulative IPC: 1.17193 (Simulation time: 0 hr 2 min 35 sec) 
Heartbeat CPU 0 instructions: 70000003 cycles: 33368822 heartbeat IPC: 1.22661 cumulative IPC: 1.19864 (Simulation time: 0 hr 3 min 4 sec) 
Heartbeat CPU 0 instructions: 80000001 cycles: 41665099 heartbeat IPC: 1.20536 cumulative IPC: 1.20087 (Simulation time: 0 hr 3 min 33 sec) 
Heartbeat CPU 0 instructions: 90000002 cycles: 49343732 heartbeat IPC: 1.30232 cumulative IPC: 1.22472 (Simulation time: 0 hr 4 min 2 sec) 
Heartbeat CPU 0 instructions: 100000002 cycles: 57651863 heartbeat IPC: 1.20364 cumulative IPC: 1.22045 (Simulation time: 0 hr 4 min 27 sec) 
Finished CPU 0 instructions: 50000003 cycles: 40968570 cumulative IPC: 1.22045 (Simulation time: 0 hr 4 min 27 sec) 

ChampSim completed all CPUs

Region of Interest Statistics

CPU 0 cumulative IPC: 1.22045 instructions: 50000003 cycles: 40968570
L1D TOTAL     ACCESS:   18297249  HIT:   16793051  MISS:    1504198
L1D LOAD      ACCESS:    6175326  HIT:    5473980  MISS:     701346
L1D RFO       ACCESS:    6160860  HIT:    6008513  MISS:     152347
L1D PREFETCH  ACCESS:    5961063  HIT:    5310558  MISS:     650505
L1D WRITEBACK ACCESS:          0  HIT:          0  MISS:          0
L1D PREFETCH  REQUESTED:   14833594  ISSUED:   14567922  USEFUL:     288984  USELESS:    1012494
L1D AVERAGE MISS LATENCY: 43.7051 cycles
L1I TOTAL     ACCESS:   13890266  HIT:   10122664  MISS:    3767602
L1I LOAD      ACCESS:    9613829  HIT:    9307397  MISS:     306432
L1I RFO       ACCESS:          0  HIT:          0  MISS:          0
L1I PREFETCH  ACCESS:    4276437  HIT:     815267  MISS:    3461170
L1I WRITEBACK ACCESS:          0  HIT:          0  MISS:          0
L1I PREFETCH  REQUESTED:  109739500  ISSUED:   24438176  USEFUL:    6150406  USELESS:     739993
L1I AVERAGE MISS LATENCY: 15.8444 cycles
L2C TOTAL     ACCESS:    6990730  HIT:    6701237  MISS:     289493
L2C LOAD      ACCESS:     925300  HIT:     798496  MISS:     126804
L2C RFO       ACCESS:     150535  HIT:     130008  MISS:      20527
L2C PREFETCH  ACCESS:    5549886  HIT:    5408441  MISS:     141445
L2C WRITEBACK ACCESS:     365009  HIT:     364292  MISS:        717
L2C PREFETCH  REQUESTED:   10799507  ISSUED:   10615676  USEFUL:      36942  USELESS:     222957
L2C AVERAGE MISS LATENCY: 164.506 cycles
LLC TOTAL     ACCESS:    1872839  HIT:    1592824  MISS:     280015
LLC LOAD      ACCESS:     126459  HIT:      42124  MISS:      84335
LLC RFO       ACCESS:      20523  HIT:       9918  MISS:      10605
LLC PREFETCH  ACCESS:    1625180  HIT:    1441160  MISS:     184020
LLC WRITEBACK ACCESS:     100677  HIT:      99622  MISS:       1055
LLC PREFETCH  REQUESTED:          0  ISSUED:          0  USEFUL:      56004  USELESS:     257435
LLC AVERAGE MISS LATENCY: 216.031 cycles
Major fault: 0 Minor fault: 5547
CPU 0 L1D next line prefetcher final stats

DRAM Statistics
 CHANNEL 0
 RQ ROW_BUFFER_HIT:      71308  ROW_BUFFER_MISS:     207643
 DBUS_CONGESTED:     161990
 WQ ROW_BUFFER_HIT:      17193  ROW_BUFFER_MISS:      73533  FULL:          0

 AVG_CONGESTED_CYCLE: 5

CPU 0 Branch Prediction Accuracy: 99.9115% MPKI: 0.17232 Average ROB Occupancy at Mispredict: 207.34

Branch types
NOT_BRANCH: 40267273 80.5345%
BRANCH_DIRECT_JUMP: 771900 1.5438%
BRANCH_INDIRECT: 108179 0.216358%
BRANCH_CONDITIONAL: 6307179 12.6144%
BRANCH_DIRECT_CALL: 1060893 2.12179%
BRANCH_INDIRECT_CALL: 211719 0.423438%
BRANCH_RETURN: 1272635 2.54527%
BRANCH_OTHER: 0 0%

