Initialize SIGNATURE TABLE
ST_SET: 1
ST_WAY: 256
ST_TAG_BIT: 16
ST_TAG_MASK: ffff

Initialize PATTERN TABLE
PT_SET: 512
PT_WAY: 4
SIG_DELTA_BIT: 7
C_SIG_BIT: 4
C_DELTA_BIT: 4

Initialize PREFETCH FILTER
FILTER_SET: 1024

*** ChampSim Multicore Out-of-Order Simulator ***

Warmup Instructions: 50000000
Simulation Instructions: 50000000
Number of CPUs: 1
LLC sets: 2048
LLC ways: 16
Off-chip DRAM Size: 4096 MB Channels: 1 Width: 64-bit Data Rate: 3200 MT/s

CPU 0 runs /home/tongjie/ChampSim-master/ipc1_public/server_029.champsimtrace.xz
CPU 0 L1D next line prefetcher
Heartbeat CPU 0 instructions: 10000001 cycles: 3495053 heartbeat IPC: 2.86119 cumulative IPC: 2.86119 (Simulation time: 0 hr 0 min 26 sec) 
Heartbeat CPU 0 instructions: 20000002 cycles: 6990015 heartbeat IPC: 2.86126 cumulative IPC: 2.86122 (Simulation time: 0 hr 0 min 52 sec) 
Heartbeat CPU 0 instructions: 30000003 cycles: 10486022 heartbeat IPC: 2.86041 cumulative IPC: 2.86095 (Simulation time: 0 hr 1 min 19 sec) 
Heartbeat CPU 0 instructions: 40000000 cycles: 13988889 heartbeat IPC: 2.8548 cumulative IPC: 2.85941 (Simulation time: 0 hr 1 min 45 sec) 
Heartbeat CPU 0 instructions: 50000000 cycles: 17490201 heartbeat IPC: 2.85607 cumulative IPC: 2.85874 (Simulation time: 0 hr 2 min 11 sec) 

Warmup complete CPU 0 instructions: 50000004 cycles: 17490202 (Simulation time: 0 hr 2 min 11 sec) 

Heartbeat CPU 0 instructions: 60000000 cycles: 25102423 heartbeat IPC: 1.31368 cumulative IPC: 1.31368 (Simulation time: 0 hr 2 min 40 sec) 
Heartbeat CPU 0 instructions: 70000003 cycles: 32868085 heartbeat IPC: 1.28772 cumulative IPC: 1.30057 (Simulation time: 0 hr 3 min 7 sec) 
Heartbeat CPU 0 instructions: 80000002 cycles: 40490355 heartbeat IPC: 1.31194 cumulative IPC: 1.30434 (Simulation time: 0 hr 3 min 35 sec) 
*** Reached end of trace for Core: 0 Repeating trace: /home/tongjie/ChampSim-master/ipc1_public/server_029.champsimtrace.xz
Heartbeat CPU 0 instructions: 90000000 cycles: 48029564 heartbeat IPC: 1.3264 cumulative IPC: 1.30978 (Simulation time: 0 hr 4 min 3 sec) 
Heartbeat CPU 0 instructions: 100000003 cycles: 55613375 heartbeat IPC: 1.3186 cumulative IPC: 1.31154 (Simulation time: 0 hr 4 min 30 sec) 
Finished CPU 0 instructions: 50000003 cycles: 38123174 cumulative IPC: 1.31154 (Simulation time: 0 hr 4 min 30 sec) 

ChampSim completed all CPUs

Region of Interest Statistics

CPU 0 cumulative IPC: 1.31154 instructions: 50000003 cycles: 38123174
L1D TOTAL     ACCESS:   19217127  HIT:   17120616  MISS:    2096511
L1D LOAD      ACCESS:    6806112  HIT:    5741228  MISS:    1064884
L1D RFO       ACCESS:    6118205  HIT:    5832798  MISS:     285407
L1D PREFETCH  ACCESS:    6292810  HIT:    5546590  MISS:     746220
L1D WRITEBACK ACCESS:          0  HIT:          0  MISS:          0
L1D PREFETCH  REQUESTED:   16040589  ISSUED:   15786769  USEFUL:     392790  USELESS:    1138349
L1D AVERAGE MISS LATENCY: 20.8147 cycles
L1I TOTAL     ACCESS:   14118857  HIT:   10645955  MISS:    3472902
L1I LOAD      ACCESS:    9719589  HIT:    9420850  MISS:     298739
L1I RFO       ACCESS:          0  HIT:          0  MISS:          0
L1I PREFETCH  ACCESS:    4399268  HIT:    1225105  MISS:    3174163
L1I WRITEBACK ACCESS:          0  HIT:          0  MISS:          0
L1I PREFETCH  REQUESTED:  105124240  ISSUED:   24576441  USEFUL:    5280663  USELESS:     940860
L1I AVERAGE MISS LATENCY: 17.1917 cycles
L2C TOTAL     ACCESS:    7680252  HIT:    7071851  MISS:     608401
L2C LOAD      ACCESS:    1105118  HIT:     948815  MISS:     156303
L2C RFO       ACCESS:     283570  HIT:     238619  MISS:      44951
L2C PREFETCH  ACCESS:    5681022  HIT:    5274926  MISS:     406096
L2C WRITEBACK ACCESS:     610542  HIT:     609491  MISS:       1051
L2C PREFETCH  REQUESTED:   11843464  ISSUED:   11381487  USEFUL:      52781  USELESS:     749362
L2C AVERAGE MISS LATENCY: 43.041 cycles
LLC TOTAL     ACCESS:    2149982  HIT:    2081946  MISS:      68036
LLC LOAD      ACCESS:     156200  HIT:     139175  MISS:      17025
LLC RFO       ACCESS:      44951  HIT:      41353  MISS:       3598
LLC PREFETCH  ACCESS:    1855883  HIT:    1809041  MISS:      46842
LLC WRITEBACK ACCESS:      92948  HIT:      92377  MISS:        571
LLC PREFETCH  REQUESTED:          0  ISSUED:          0  USEFUL:       6318  USELESS:      72193
LLC AVERAGE MISS LATENCY: 155.874 cycles
Major fault: 0 Minor fault: 5918
CPU 0 L1D next line prefetcher final stats

DRAM Statistics
 CHANNEL 0
 RQ ROW_BUFFER_HIT:      19590  ROW_BUFFER_MISS:      47855
 DBUS_CONGESTED:      26177
 WQ ROW_BUFFER_HIT:        560  ROW_BUFFER_MISS:       3968  FULL:          0

 AVG_CONGESTED_CYCLE: 4

CPU 0 Branch Prediction Accuracy: 99.7245% MPKI: 0.51862 Average ROB Occupancy at Mispredict: 139.039

Branch types
NOT_BRANCH: 40586613 81.1732%
BRANCH_DIRECT_JUMP: 525209 1.05042%
BRANCH_INDIRECT: 166359 0.332718%
BRANCH_CONDITIONAL: 6373094 12.7462%
BRANCH_DIRECT_CALL: 989263 1.97853%
BRANCH_INDIRECT_CALL: 184984 0.369968%
BRANCH_RETURN: 1174250 2.3485%
BRANCH_OTHER: 0 0%

