Initialize SIGNATURE TABLE
ST_SET: 1
ST_WAY: 256
ST_TAG_BIT: 16
ST_TAG_MASK: ffff

Initialize PATTERN TABLE
PT_SET: 512
PT_WAY: 4
SIG_DELTA_BIT: 7
C_SIG_BIT: 4
C_DELTA_BIT: 4

Initialize PREFETCH FILTER
FILTER_SET: 1024

*** ChampSim Multicore Out-of-Order Simulator ***

Warmup Instructions: 50000000
Simulation Instructions: 50000000
Number of CPUs: 1
LLC sets: 2048
LLC ways: 16
Off-chip DRAM Size: 4096 MB Channels: 1 Width: 64-bit Data Rate: 3200 MT/s

CPU 0 runs /home/tongjie/ChampSim-master/ipc1_public/server_015.champsimtrace.xz
CPU 0 L1D next line prefetcher
Heartbeat CPU 0 instructions: 10000002 cycles: 3519437 heartbeat IPC: 2.84136 cumulative IPC: 2.84136 (Simulation time: 0 hr 0 min 23 sec) 
Heartbeat CPU 0 instructions: 20000001 cycles: 7107299 heartbeat IPC: 2.78717 cumulative IPC: 2.81401 (Simulation time: 0 hr 0 min 48 sec) 
Heartbeat CPU 0 instructions: 30000001 cycles: 10646266 heartbeat IPC: 2.82568 cumulative IPC: 2.81789 (Simulation time: 0 hr 1 min 12 sec) 
Heartbeat CPU 0 instructions: 40000002 cycles: 14194307 heartbeat IPC: 2.81846 cumulative IPC: 2.81803 (Simulation time: 0 hr 1 min 37 sec) 
Heartbeat CPU 0 instructions: 50000002 cycles: 17742567 heartbeat IPC: 2.81828 cumulative IPC: 2.81808 (Simulation time: 0 hr 2 min 3 sec) 

Warmup complete CPU 0 instructions: 50000002 cycles: 17742567 (Simulation time: 0 hr 2 min 3 sec) 

Heartbeat CPU 0 instructions: 60000002 cycles: 24085556 heartbeat IPC: 1.57654 cumulative IPC: 1.57654 (Simulation time: 0 hr 2 min 29 sec) 
Heartbeat CPU 0 instructions: 70000003 cycles: 30426714 heartbeat IPC: 1.577 cumulative IPC: 1.57677 (Simulation time: 0 hr 2 min 54 sec) 
Heartbeat CPU 0 instructions: 80000000 cycles: 36763765 heartbeat IPC: 1.57802 cumulative IPC: 1.57719 (Simulation time: 0 hr 3 min 19 sec) 
Heartbeat CPU 0 instructions: 90000000 cycles: 43109477 heartbeat IPC: 1.57587 cumulative IPC: 1.57686 (Simulation time: 0 hr 3 min 43 sec) 
Heartbeat CPU 0 instructions: 100000002 cycles: 49454568 heartbeat IPC: 1.57602 cumulative IPC: 1.57669 (Simulation time: 0 hr 4 min 6 sec) 
Finished CPU 0 instructions: 50000000 cycles: 31712001 cumulative IPC: 1.57669 (Simulation time: 0 hr 4 min 6 sec) 

ChampSim completed all CPUs

Region of Interest Statistics

CPU 0 cumulative IPC: 1.57669 instructions: 50000000 cycles: 31712001
L1D TOTAL     ACCESS:   21942695  HIT:   21925783  MISS:      16912
L1D LOAD      ACCESS:    6746218  HIT:    6745687  MISS:        531
L1D RFO       ACCESS:    8562794  HIT:    8562698  MISS:         96
L1D PREFETCH  ACCESS:    6633683  HIT:    6617398  MISS:      16285
L1D WRITEBACK ACCESS:          0  HIT:          0  MISS:          0
L1D PREFETCH  REQUESTED:   15833080  ISSUED:   15580761  USEFUL:      13301  USELESS:      24162
L1D AVERAGE MISS LATENCY: 16.5349 cycles
L1I TOTAL     ACCESS:   14946037  HIT:   12394620  MISS:    2551417
L1I LOAD      ACCESS:    9572138  HIT:    9336389  MISS:     235749
L1I RFO       ACCESS:          0  HIT:          0  MISS:          0
L1I PREFETCH  ACCESS:    5373899  HIT:    3058231  MISS:    2315668
L1I WRITEBACK ACCESS:          0  HIT:          0  MISS:          0
L1I PREFETCH  REQUESTED:   94638830  ISSUED:   26486503  USEFUL:    3780687  USELESS:     717023
L1I AVERAGE MISS LATENCY: 14.3925 cycles
L2C TOTAL     ACCESS:    3316455  HIT:    3316088  MISS:        367
L2C LOAD      ACCESS:     184589  HIT:     184494  MISS:         95
L2C RFO       ACCESS:         95  HIT:         93  MISS:          2
L2C PREFETCH  ACCESS:    3131421  HIT:    3131151  MISS:        270
L2C WRITEBACK ACCESS:        350  HIT:        350  MISS:          0
L2C PREFETCH  REQUESTED:    3302608  ISSUED:    3282354  USEFUL:       1180  USELESS:      20267
L2C AVERAGE MISS LATENCY: 75.2888 cycles
LLC TOTAL     ACCESS:     400148  HIT:     399416  MISS:        732
LLC LOAD      ACCESS:         95  HIT:         77  MISS:         18
LLC RFO       ACCESS:          2  HIT:          1  MISS:          1
LLC PREFETCH  ACCESS:     399930  HIT:     399218  MISS:        712
LLC WRITEBACK ACCESS:        121  HIT:        120  MISS:          1
LLC PREFETCH  REQUESTED:          0  ISSUED:          0  USEFUL:       6981  USELESS:      13402
LLC AVERAGE MISS LATENCY: 212.758 cycles
Major fault: 0 Minor fault: 1888
CPU 0 L1D next line prefetcher final stats

DRAM Statistics
 CHANNEL 0
 RQ ROW_BUFFER_HIT:         90  ROW_BUFFER_MISS:        641
 DBUS_CONGESTED:        312
 WQ ROW_BUFFER_HIT:         56  ROW_BUFFER_MISS:        443  FULL:          0

 AVG_CONGESTED_CYCLE: 6

CPU 0 Branch Prediction Accuracy: 99.9085% MPKI: 0.15428 Average ROB Occupancy at Mispredict: 275.934

Branch types
NOT_BRANCH: 41573005 83.146%
BRANCH_DIRECT_JUMP: 436253 0.872506%
BRANCH_INDIRECT: 0 0%
BRANCH_CONDITIONAL: 5395879 10.7918%
BRANCH_DIRECT_CALL: 1173387 2.34677%
BRANCH_INDIRECT_CALL: 123910 0.24782%
BRANCH_RETURN: 1297308 2.59462%
BRANCH_OTHER: 0 0%

