Initialize SIGNATURE TABLE
ST_SET: 1
ST_WAY: 256
ST_TAG_BIT: 16
ST_TAG_MASK: ffff

Initialize PATTERN TABLE
PT_SET: 512
PT_WAY: 4
SIG_DELTA_BIT: 7
C_SIG_BIT: 4
C_DELTA_BIT: 4

Initialize PREFETCH FILTER
FILTER_SET: 1024

*** ChampSim Multicore Out-of-Order Simulator ***

Warmup Instructions: 50000000
Simulation Instructions: 50000000
Number of CPUs: 1
LLC sets: 2048
LLC ways: 16
Off-chip DRAM Size: 4096 MB Channels: 1 Width: 64-bit Data Rate: 3200 MT/s

CPU 0 runs /home/tongjie/ChampSim-master/ipc1_public/server_013.champsimtrace.xz
CPU 0 L1D next line prefetcher
Heartbeat CPU 0 instructions: 10000000 cycles: 3217862 heartbeat IPC: 3.10765 cumulative IPC: 3.10765 (Simulation time: 0 hr 0 min 24 sec) 
Heartbeat CPU 0 instructions: 20000001 cycles: 6425305 heartbeat IPC: 3.11775 cumulative IPC: 3.11269 (Simulation time: 0 hr 0 min 48 sec) 
Heartbeat CPU 0 instructions: 30000002 cycles: 9637119 heartbeat IPC: 3.11351 cumulative IPC: 3.11296 (Simulation time: 0 hr 1 min 12 sec) 
Heartbeat CPU 0 instructions: 40000002 cycles: 12843361 heartbeat IPC: 3.11892 cumulative IPC: 3.11445 (Simulation time: 0 hr 1 min 37 sec) 
Heartbeat CPU 0 instructions: 50000000 cycles: 16049957 heartbeat IPC: 3.11857 cumulative IPC: 3.11527 (Simulation time: 0 hr 2 min 3 sec) 

Warmup complete CPU 0 instructions: 50000004 cycles: 16049958 (Simulation time: 0 hr 2 min 3 sec) 

Heartbeat CPU 0 instructions: 60000000 cycles: 25814616 heartbeat IPC: 1.0241 cumulative IPC: 1.0241 (Simulation time: 0 hr 2 min 28 sec) 
Heartbeat CPU 0 instructions: 70000000 cycles: 35638894 heartbeat IPC: 1.01789 cumulative IPC: 1.02098 (Simulation time: 0 hr 2 min 53 sec) 
Heartbeat CPU 0 instructions: 80000003 cycles: 44981498 heartbeat IPC: 1.07037 cumulative IPC: 1.03693 (Simulation time: 0 hr 3 min 17 sec) 
Heartbeat CPU 0 instructions: 90000003 cycles: 54526386 heartbeat IPC: 1.04768 cumulative IPC: 1.0396 (Simulation time: 0 hr 3 min 41 sec) 
Heartbeat CPU 0 instructions: 100000003 cycles: 64058586 heartbeat IPC: 1.04908 cumulative IPC: 1.04148 (Simulation time: 0 hr 4 min 3 sec) 
Finished CPU 0 instructions: 50000003 cycles: 48008629 cumulative IPC: 1.04148 (Simulation time: 0 hr 4 min 3 sec) 

ChampSim completed all CPUs

Region of Interest Statistics

CPU 0 cumulative IPC: 1.04148 instructions: 50000003 cycles: 48008629
L1D TOTAL     ACCESS:   18025691  HIT:   16958716  MISS:    1066975
L1D LOAD      ACCESS:    6654307  HIT:    6158588  MISS:     495719
L1D RFO       ACCESS:    4951435  HIT:    4871155  MISS:      80280
L1D PREFETCH  ACCESS:    6419949  HIT:    5928973  MISS:     490976
L1D WRITEBACK ACCESS:          0  HIT:          0  MISS:          0
L1D PREFETCH  REQUESTED:   15406027  ISSUED:   15166383  USEFUL:     286705  USELESS:     702452
L1D AVERAGE MISS LATENCY: 41.0353 cycles
L1I TOTAL     ACCESS:   10456517  HIT:    8451806  MISS:    2004711
L1I LOAD      ACCESS:    8612991  HIT:    7880146  MISS:     732845
L1I RFO       ACCESS:          0  HIT:          0  MISS:          0
L1I PREFETCH  ACCESS:    1843526  HIT:     571660  MISS:    1271866
L1I WRITEBACK ACCESS:          0  HIT:          0  MISS:          0
L1I PREFETCH  REQUESTED:   44879380  ISSUED:   10898881  USEFUL:    1393884  USELESS:    1034493
L1I AVERAGE MISS LATENCY: 28.6058 cycles
L2C TOTAL     ACCESS:    4115961  HIT:    2779367  MISS:    1336594
L2C LOAD      ACCESS:    1173302  HIT:     495580  MISS:     677722
L2C RFO       ACCESS:      78896  HIT:      30848  MISS:      48048
L2C PREFETCH  ACCESS:    2587897  HIT:    1978807  MISS:     609090
L2C WRITEBACK ACCESS:     275866  HIT:     274132  MISS:       1734
L2C PREFETCH  REQUESTED:    7562349  ISSUED:    7095349  USEFUL:     113523  USELESS:    1102597
L2C AVERAGE MISS LATENCY: 42.3241 cycles
LLC TOTAL     ACCESS:    2894808  HIT:    2727077  MISS:     167731
LLC LOAD      ACCESS:     668459  HIT:     632202  MISS:      36257
LLC RFO       ACCESS:      48042  HIT:      37988  MISS:      10054
LLC PREFETCH  ACCESS:    2005729  HIT:    1884630  MISS:     121099
LLC WRITEBACK ACCESS:     172578  HIT:     172257  MISS:        321
LLC PREFETCH  REQUESTED:          0  ISSUED:          0  USEFUL:      47028  USELESS:     186316
LLC AVERAGE MISS LATENCY: 164.692 cycles
Major fault: 0 Minor fault: 6200
CPU 0 L1D next line prefetcher final stats

DRAM Statistics
 CHANNEL 0
 RQ ROW_BUFFER_HIT:      26471  ROW_BUFFER_MISS:     140935
 DBUS_CONGESTED:      68913
 WQ ROW_BUFFER_HIT:      10993  ROW_BUFFER_MISS:      52981  FULL:          0

 AVG_CONGESTED_CYCLE: 5

CPU 0 Branch Prediction Accuracy: 99.4114% MPKI: 1.0933 Average ROB Occupancy at Mispredict: 88.9892

Branch types
NOT_BRANCH: 40713186 81.4264%
BRANCH_DIRECT_JUMP: 463700 0.9274%
BRANCH_INDIRECT: 146543 0.293086%
BRANCH_CONDITIONAL: 6981944 13.9639%
BRANCH_DIRECT_CALL: 665005 1.33001%
BRANCH_INDIRECT_CALL: 165150 0.3303%
BRANCH_RETURN: 864311 1.72862%
BRANCH_OTHER: 0 0%

