Initialize SIGNATURE TABLE
ST_SET: 1
ST_WAY: 256
ST_TAG_BIT: 16
ST_TAG_MASK: ffff

Initialize PATTERN TABLE
PT_SET: 512
PT_WAY: 4
SIG_DELTA_BIT: 7
C_SIG_BIT: 4
C_DELTA_BIT: 4

Initialize PREFETCH FILTER
FILTER_SET: 1024

*** ChampSim Multicore Out-of-Order Simulator ***

Warmup Instructions: 50000000
Simulation Instructions: 50000000
Number of CPUs: 1
LLC sets: 2048
LLC ways: 16
Off-chip DRAM Size: 4096 MB Channels: 1 Width: 64-bit Data Rate: 3200 MT/s

CPU 0 runs /home/tongjie/ChampSim-master/ipc1_public/server_033.champsimtrace.xz
CPU 0 L1D next line prefetcher
Heartbeat CPU 0 instructions: 10000001 cycles: 3341188 heartbeat IPC: 2.99295 cumulative IPC: 2.99295 (Simulation time: 0 hr 0 min 25 sec) 
Heartbeat CPU 0 instructions: 20000002 cycles: 6680703 heartbeat IPC: 2.99445 cumulative IPC: 2.9937 (Simulation time: 0 hr 0 min 50 sec) 
Heartbeat CPU 0 instructions: 30000001 cycles: 10010070 heartbeat IPC: 3.00357 cumulative IPC: 2.99698 (Simulation time: 0 hr 1 min 15 sec) 
Heartbeat CPU 0 instructions: 40000000 cycles: 13347904 heartbeat IPC: 2.99595 cumulative IPC: 2.99673 (Simulation time: 0 hr 1 min 41 sec) 
Heartbeat CPU 0 instructions: 50000000 cycles: 16685343 heartbeat IPC: 2.99631 cumulative IPC: 2.99664 (Simulation time: 0 hr 2 min 6 sec) 

Warmup complete CPU 0 instructions: 50000004 cycles: 16685344 (Simulation time: 0 hr 2 min 6 sec) 

Heartbeat CPU 0 instructions: 60000000 cycles: 23265696 heartbeat IPC: 1.51968 cumulative IPC: 1.51967 (Simulation time: 0 hr 2 min 32 sec) 
Heartbeat CPU 0 instructions: 70000000 cycles: 29790261 heartbeat IPC: 1.53267 cumulative IPC: 1.52614 (Simulation time: 0 hr 2 min 59 sec) 
Heartbeat CPU 0 instructions: 80000000 cycles: 37210522 heartbeat IPC: 1.34766 cumulative IPC: 1.46162 (Simulation time: 0 hr 3 min 28 sec) 
Heartbeat CPU 0 instructions: 90000003 cycles: 43852050 heartbeat IPC: 1.50568 cumulative IPC: 1.47239 (Simulation time: 0 hr 3 min 55 sec) 
Heartbeat CPU 0 instructions: 100000001 cycles: 50458985 heartbeat IPC: 1.51356 cumulative IPC: 1.48044 (Simulation time: 0 hr 4 min 21 sec) 
Finished CPU 0 instructions: 50000000 cycles: 33773642 cumulative IPC: 1.48044 (Simulation time: 0 hr 4 min 21 sec) 

ChampSim completed all CPUs

Region of Interest Statistics

CPU 0 cumulative IPC: 1.48044 instructions: 50000000 cycles: 33773642
L1D TOTAL     ACCESS:   18326907  HIT:   16844469  MISS:    1482438
L1D LOAD      ACCESS:    6185790  HIT:    5502983  MISS:     682807
L1D RFO       ACCESS:    6166746  HIT:    6017113  MISS:     149633
L1D PREFETCH  ACCESS:    5974371  HIT:    5324373  MISS:     649998
L1D WRITEBACK ACCESS:          0  HIT:          0  MISS:          0
L1D PREFETCH  REQUESTED:   14847780  ISSUED:   14524879  USEFUL:     289188  USELESS:    1016663
L1D AVERAGE MISS LATENCY: 23.4522 cycles
L1I TOTAL     ACCESS:   13800538  HIT:   10215879  MISS:    3584659
L1I LOAD      ACCESS:    9596402  HIT:    9354973  MISS:     241429
L1I RFO       ACCESS:          0  HIT:          0  MISS:          0
L1I PREFETCH  ACCESS:    4204136  HIT:     860906  MISS:    3343230
L1I WRITEBACK ACCESS:          0  HIT:          0  MISS:          0
L1I PREFETCH  REQUESTED:  104931320  ISSUED:   23464104  USEFUL:    6150223  USELESS:     493124
L1I AVERAGE MISS LATENCY: 15.3474 cycles
L2C TOTAL     ACCESS:    6886265  HIT:    6600331  MISS:     285934
L2C LOAD      ACCESS:     847355  HIT:     718527  MISS:     128828
L2C RFO       ACCESS:     148287  HIT:     128931  MISS:      19356
L2C PREFETCH  ACCESS:    5524161  HIT:    5387540  MISS:     136621
L2C WRITEBACK ACCESS:     366462  HIT:     365333  MISS:       1129
L2C PREFETCH  REQUESTED:   10352689  ISSUED:   10201740  USEFUL:      28884  USELESS:     246575
L2C AVERAGE MISS LATENCY: 49.1066 cycles
LLC TOTAL     ACCESS:    1650175  HIT:    1598638  MISS:      51537
LLC LOAD      ACCESS:     128796  HIT:     115333  MISS:      13463
LLC RFO       ACCESS:      19356  HIT:      16406  MISS:       2950
LLC PREFETCH  ACCESS:    1398972  HIT:    1364061  MISS:      34911
LLC WRITEBACK ACCESS:     103051  HIT:     102838  MISS:        213
LLC PREFETCH  REQUESTED:          0  ISSUED:          0  USEFUL:      14418  USELESS:      49827
LLC AVERAGE MISS LATENCY: 172.342 cycles
Major fault: 0 Minor fault: 2482
CPU 0 L1D next line prefetcher final stats

DRAM Statistics
 CHANNEL 0
 RQ ROW_BUFFER_HIT:       8327  ROW_BUFFER_MISS:      42995
 DBUS_CONGESTED:      21298
 WQ ROW_BUFFER_HIT:       3294  ROW_BUFFER_MISS:      15187  FULL:          0

 AVG_CONGESTED_CYCLE: 5

CPU 0 Branch Prediction Accuracy: 99.9029% MPKI: 0.19006 Average ROB Occupancy at Mispredict: 226.398

Branch types
NOT_BRANCH: 40217100 80.4342%
BRANCH_DIRECT_JUMP: 774599 1.5492%
BRANCH_INDIRECT: 108806 0.217612%
BRANCH_CONDITIONAL: 6379330 12.7587%
BRANCH_DIRECT_CALL: 1048808 2.09762%
BRANCH_INDIRECT_CALL: 211109 0.422218%
BRANCH_RETURN: 1259925 2.51985%
BRANCH_OTHER: 0 0%

