Initialize SIGNATURE TABLE
ST_SET: 1
ST_WAY: 256
ST_TAG_BIT: 16
ST_TAG_MASK: ffff

Initialize PATTERN TABLE
PT_SET: 512
PT_WAY: 4
SIG_DELTA_BIT: 7
C_SIG_BIT: 4
C_DELTA_BIT: 4

Initialize PREFETCH FILTER
FILTER_SET: 1024

*** ChampSim Multicore Out-of-Order Simulator ***

Warmup Instructions: 50000000
Simulation Instructions: 50000000
Number of CPUs: 1
LLC sets: 2048
LLC ways: 16
Off-chip DRAM Size: 4096 MB Channels: 1 Width: 64-bit Data Rate: 3200 MT/s

CPU 0 runs /home/tongjie/ChampSim-master/ipc1_public/spec_gobmk_002.champsimtrace.xz
CPU 0 L1D next line prefetcher
Heartbeat CPU 0 instructions: 10000001 cycles: 3287559 heartbeat IPC: 3.04177 cumulative IPC: 3.04177 (Simulation time: 0 hr 0 min 21 sec) 
Heartbeat CPU 0 instructions: 20000000 cycles: 6619216 heartbeat IPC: 3.00151 cumulative IPC: 3.02151 (Simulation time: 0 hr 0 min 42 sec) 
Heartbeat CPU 0 instructions: 30000000 cycles: 9957300 heartbeat IPC: 2.99573 cumulative IPC: 3.01286 (Simulation time: 0 hr 1 min 4 sec) 
Heartbeat CPU 0 instructions: 40000000 cycles: 13266905 heartbeat IPC: 3.02151 cumulative IPC: 3.01502 (Simulation time: 0 hr 1 min 27 sec) 
Heartbeat CPU 0 instructions: 50000003 cycles: 16530555 heartbeat IPC: 3.06405 cumulative IPC: 3.0247 (Simulation time: 0 hr 1 min 50 sec) 

Warmup complete CPU 0 instructions: 50000003 cycles: 16530555 (Simulation time: 0 hr 1 min 50 sec) 

Heartbeat CPU 0 instructions: 60000002 cycles: 24795913 heartbeat IPC: 1.20987 cumulative IPC: 1.20987 (Simulation time: 0 hr 2 min 11 sec) 
Heartbeat CPU 0 instructions: 70000000 cycles: 32989286 heartbeat IPC: 1.2205 cumulative IPC: 1.21516 (Simulation time: 0 hr 2 min 30 sec) 
Heartbeat CPU 0 instructions: 80000000 cycles: 41053276 heartbeat IPC: 1.24008 cumulative IPC: 1.22336 (Simulation time: 0 hr 2 min 48 sec) 
Heartbeat CPU 0 instructions: 90000001 cycles: 49335852 heartbeat IPC: 1.20735 cumulative IPC: 1.21932 (Simulation time: 0 hr 3 min 5 sec) 
Heartbeat CPU 0 instructions: 100000003 cycles: 57977604 heartbeat IPC: 1.15717 cumulative IPC: 1.20636 (Simulation time: 0 hr 3 min 23 sec) 
Finished CPU 0 instructions: 50000000 cycles: 41447049 cumulative IPC: 1.20636 (Simulation time: 0 hr 3 min 23 sec) 

ChampSim completed all CPUs

Region of Interest Statistics

CPU 0 cumulative IPC: 1.20636 instructions: 50000000 cycles: 41447049
L1D TOTAL     ACCESS:   18007908  HIT:   17884772  MISS:     123136
L1D LOAD      ACCESS:    6842868  HIT:    6808719  MISS:      34149
L1D RFO       ACCESS:    4397923  HIT:    4355327  MISS:      42596
L1D PREFETCH  ACCESS:    6767117  HIT:    6720726  MISS:      46391
L1D WRITEBACK ACCESS:          0  HIT:          0  MISS:          0
L1D PREFETCH  REQUESTED:   14565547  ISSUED:   14397969  USEFUL:      39085  USELESS:      64085
L1D AVERAGE MISS LATENCY: 50.1701 cycles
L1I TOTAL     ACCESS:   16351671  HIT:   13173129  MISS:    3178542
L1I LOAD      ACCESS:    8953253  HIT:    8440444  MISS:     512809
L1I RFO       ACCESS:          0  HIT:          0  MISS:          0
L1I PREFETCH  ACCESS:    7398418  HIT:    4732685  MISS:    2665733
L1I WRITEBACK ACCESS:          0  HIT:          0  MISS:          0
L1I PREFETCH  REQUESTED:  114330060  ISSUED:   28082896  USEFUL:    1691015  USELESS:    3023116
L1I AVERAGE MISS LATENCY: 14.4623 cycles
L2C TOTAL     ACCESS:    4862614  HIT:    4825790  MISS:      36824
L2C LOAD      ACCESS:     510325  HIT:     495036  MISS:      15289
L2C RFO       ACCESS:      42483  HIT:      39754  MISS:       2729
L2C PREFETCH  ACCESS:    4235610  HIT:    4216936  MISS:      18674
L2C WRITEBACK ACCESS:      74196  HIT:      74064  MISS:        132
L2C PREFETCH  REQUESTED:    4207958  ISSUED:    4205053  USEFUL:       5800  USELESS:      34461
L2C AVERAGE MISS LATENCY: 124.821 cycles
LLC TOTAL     ACCESS:     205164  HIT:     174141  MISS:      31023
LLC LOAD      ACCESS:      15289  HIT:       6442  MISS:       8847
LLC RFO       ACCESS:       2729  HIT:       1106  MISS:       1623
LLC PREFETCH  ACCESS:     169224  HIT:     149194  MISS:      20030
LLC WRITEBACK ACCESS:      17922  HIT:      17399  MISS:        523
LLC PREFETCH  REQUESTED:          0  ISSUED:          0  USEFUL:       7060  USELESS:      25471
LLC AVERAGE MISS LATENCY: 181.122 cycles
Major fault: 0 Minor fault: 2776
CPU 0 L1D next line prefetcher final stats

DRAM Statistics
 CHANNEL 0
 RQ ROW_BUFFER_HIT:       2468  ROW_BUFFER_MISS:      28032
 DBUS_CONGESTED:      14002
 WQ ROW_BUFFER_HIT:        754  ROW_BUFFER_MISS:      12496  FULL:          0

 AVG_CONGESTED_CYCLE: 4

CPU 0 Branch Prediction Accuracy: 93.9974% MPKI: 10.2447 Average ROB Occupancy at Mispredict: 33.3711

Branch types
NOT_BRANCH: 41466043 82.9321%
BRANCH_DIRECT_JUMP: 464313 0.928626%
BRANCH_INDIRECT: 32 6.4e-05%
BRANCH_CONDITIONAL: 7069452 14.1389%
BRANCH_DIRECT_CALL: 499586 0.999172%
BRANCH_INDIRECT_CALL: 342 0.000684%
BRANCH_RETURN: 499906 0.999812%
BRANCH_OTHER: 0 0%

