Initialize SIGNATURE TABLE
ST_SET: 1
ST_WAY: 256
ST_TAG_BIT: 16
ST_TAG_MASK: ffff

Initialize PATTERN TABLE
PT_SET: 512
PT_WAY: 4
SIG_DELTA_BIT: 7
C_SIG_BIT: 4
C_DELTA_BIT: 4

Initialize PREFETCH FILTER
FILTER_SET: 1024

*** ChampSim Multicore Out-of-Order Simulator ***

Warmup Instructions: 50000000
Simulation Instructions: 50000000
Number of CPUs: 1
LLC sets: 2048
LLC ways: 16
Off-chip DRAM Size: 4096 MB Channels: 1 Width: 64-bit Data Rate: 3200 MT/s

CPU 0 runs /home/tongjie/ChampSim-master/ipc1_public/spec_gobmk_001.champsimtrace.xz
CPU 0 L1D next line prefetcher
Heartbeat CPU 0 instructions: 10000003 cycles: 3507133 heartbeat IPC: 2.85133 cumulative IPC: 2.85133 (Simulation time: 0 hr 0 min 21 sec) 
Heartbeat CPU 0 instructions: 20000002 cycles: 6987467 heartbeat IPC: 2.87329 cumulative IPC: 2.86227 (Simulation time: 0 hr 0 min 42 sec) 
Heartbeat CPU 0 instructions: 30000002 cycles: 10506451 heartbeat IPC: 2.84173 cumulative IPC: 2.85539 (Simulation time: 0 hr 1 min 3 sec) 
Heartbeat CPU 0 instructions: 40000001 cycles: 14025778 heartbeat IPC: 2.84145 cumulative IPC: 2.85189 (Simulation time: 0 hr 1 min 24 sec) 
Heartbeat CPU 0 instructions: 50000001 cycles: 17565823 heartbeat IPC: 2.82482 cumulative IPC: 2.84644 (Simulation time: 0 hr 1 min 46 sec) 

Warmup complete CPU 0 instructions: 50000001 cycles: 17565823 (Simulation time: 0 hr 1 min 46 sec) 

Heartbeat CPU 0 instructions: 60000000 cycles: 26969008 heartbeat IPC: 1.06347 cumulative IPC: 1.06347 (Simulation time: 0 hr 2 min 5 sec) 
Heartbeat CPU 0 instructions: 70000002 cycles: 36119344 heartbeat IPC: 1.09286 cumulative IPC: 1.07796 (Simulation time: 0 hr 2 min 24 sec) 
Heartbeat CPU 0 instructions: 80000003 cycles: 45511318 heartbeat IPC: 1.06474 cumulative IPC: 1.07352 (Simulation time: 0 hr 2 min 42 sec) 
Heartbeat CPU 0 instructions: 90000001 cycles: 54498917 heartbeat IPC: 1.11264 cumulative IPC: 1.08304 (Simulation time: 0 hr 2 min 58 sec) 
Heartbeat CPU 0 instructions: 100000003 cycles: 63913432 heartbeat IPC: 1.06219 cumulative IPC: 1.0788 (Simulation time: 0 hr 3 min 16 sec) 
Finished CPU 0 instructions: 50000002 cycles: 46347609 cumulative IPC: 1.0788 (Simulation time: 0 hr 3 min 16 sec) 

ChampSim completed all CPUs

Region of Interest Statistics

CPU 0 cumulative IPC: 1.0788 instructions: 50000002 cycles: 46347609
L1D TOTAL     ACCESS:   18257645  HIT:   17878053  MISS:     379592
L1D LOAD      ACCESS:    7340242  HIT:    7204866  MISS:     135376
L1D RFO       ACCESS:    3712536  HIT:    3608114  MISS:     104422
L1D PREFETCH  ACCESS:    7204867  HIT:    7065073  MISS:     139794
L1D WRITEBACK ACCESS:          0  HIT:          0  MISS:          0
L1D PREFETCH  REQUESTED:   15800218  ISSUED:   15599858  USEFUL:     119619  USELESS:     203327
L1D AVERAGE MISS LATENCY: 33.2479 cycles
L1I TOTAL     ACCESS:   13907009  HIT:   11786898  MISS:    2120111
L1I LOAD      ACCESS:    9019169  HIT:    8672178  MISS:     346991
L1I RFO       ACCESS:          0  HIT:          0  MISS:          0
L1I PREFETCH  ACCESS:    4887840  HIT:    3114720  MISS:    1773120
L1I WRITEBACK ACCESS:          0  HIT:          0  MISS:          0
L1I PREFETCH  REQUESTED:   73747180  ISSUED:   18268544  USEFUL:    1140253  USELESS:    1987540
L1I AVERAGE MISS LATENCY: 14.6563 cycles
L2C TOTAL     ACCESS:    3699068  HIT:    3577001  MISS:     122067
L2C LOAD      ACCESS:     438484  HIT:     397096  MISS:      41388
L2C RFO       ACCESS:     104125  HIT:      69946  MISS:      34179
L2C PREFETCH  ACCESS:    3017163  HIT:    2970733  MISS:      46430
L2C WRITEBACK ACCESS:     139296  HIT:     139226  MISS:         70
L2C PREFETCH  REQUESTED:    3281531  ISSUED:    3272988  USEFUL:      10236  USELESS:     102049
L2C AVERAGE MISS LATENCY: 64.1952 cycles
LLC TOTAL     ACCESS:     335729  HIT:     302443  MISS:      33286
LLC LOAD      ACCESS:      41386  HIT:      33007  MISS:       8379
LLC RFO       ACCESS:      34179  HIT:      27931  MISS:       6248
LLC PREFETCH  ACCESS:     215105  HIT:     196694  MISS:      18411
LLC WRITEBACK ACCESS:      45059  HIT:      44811  MISS:        248
LLC PREFETCH  REQUESTED:          0  ISSUED:          0  USEFUL:       7697  USELESS:      35450
LLC AVERAGE MISS LATENCY: 178.968 cycles
Major fault: 0 Minor fault: 4156
CPU 0 L1D next line prefetcher final stats

DRAM Statistics
 CHANNEL 0
 RQ ROW_BUFFER_HIT:       4200  ROW_BUFFER_MISS:      28838
 DBUS_CONGESTED:      18851
 WQ ROW_BUFFER_HIT:       1361  ROW_BUFFER_MISS:      13816  FULL:          0

 AVG_CONGESTED_CYCLE: 4

CPU 0 Branch Prediction Accuracy: 94.7729% MPKI: 9.72684 Average ROB Occupancy at Mispredict: 48.4285

Branch types
NOT_BRANCH: 40695396 81.3908%
BRANCH_DIRECT_JUMP: 422107 0.844214%
BRANCH_INDIRECT: 65 0.00013%
BRANCH_CONDITIONAL: 8105005 16.21%
BRANCH_DIRECT_CALL: 374913 0.749826%
BRANCH_INDIRECT_CALL: 13657 0.027314%
BRANCH_RETURN: 388556 0.777112%
BRANCH_OTHER: 0 0%

