Initialize SIGNATURE TABLE
ST_SET: 1
ST_WAY: 256
ST_TAG_BIT: 16
ST_TAG_MASK: ffff

Initialize PATTERN TABLE
PT_SET: 512
PT_WAY: 4
SIG_DELTA_BIT: 7
C_SIG_BIT: 4
C_DELTA_BIT: 4

Initialize PREFETCH FILTER
FILTER_SET: 1024

*** ChampSim Multicore Out-of-Order Simulator ***

Warmup Instructions: 50000000
Simulation Instructions: 50000000
Number of CPUs: 1
LLC sets: 2048
LLC ways: 16
Off-chip DRAM Size: 4096 MB Channels: 1 Width: 64-bit Data Rate: 3200 MT/s

CPU 0 runs /home/tongjie/ChampSim-master/ipc1_public/spec_x264_001.champsimtrace.xz
CPU 0 L1D next line prefetcher
Heartbeat CPU 0 instructions: 10000002 cycles: 3060082 heartbeat IPC: 3.26789 cumulative IPC: 3.26789 (Simulation time: 0 hr 0 min 16 sec) 
Heartbeat CPU 0 instructions: 20000002 cycles: 6110318 heartbeat IPC: 3.27843 cumulative IPC: 3.27315 (Simulation time: 0 hr 0 min 31 sec) 
Heartbeat CPU 0 instructions: 30000002 cycles: 9146176 heartbeat IPC: 3.29396 cumulative IPC: 3.28006 (Simulation time: 0 hr 0 min 47 sec) 
Heartbeat CPU 0 instructions: 40000000 cycles: 12190972 heartbeat IPC: 3.28429 cumulative IPC: 3.28112 (Simulation time: 0 hr 1 min 2 sec) 
Heartbeat CPU 0 instructions: 50000000 cycles: 15234254 heartbeat IPC: 3.28593 cumulative IPC: 3.28208 (Simulation time: 0 hr 1 min 17 sec) 

Warmup complete CPU 0 instructions: 50000004 cycles: 15234255 (Simulation time: 0 hr 1 min 17 sec) 

Heartbeat CPU 0 instructions: 60000002 cycles: 21246139 heartbeat IPC: 1.66337 cumulative IPC: 1.66337 (Simulation time: 0 hr 1 min 29 sec) 
Heartbeat CPU 0 instructions: 70000000 cycles: 27248709 heartbeat IPC: 1.66595 cumulative IPC: 1.66466 (Simulation time: 0 hr 1 min 40 sec) 
Heartbeat CPU 0 instructions: 80000003 cycles: 33390608 heartbeat IPC: 1.62816 cumulative IPC: 1.65231 (Simulation time: 0 hr 1 min 51 sec) 
Heartbeat CPU 0 instructions: 90000002 cycles: 39510778 heartbeat IPC: 1.63394 cumulative IPC: 1.64768 (Simulation time: 0 hr 2 min 2 sec) 
Heartbeat CPU 0 instructions: 100000002 cycles: 45508647 heartbeat IPC: 1.66726 cumulative IPC: 1.65156 (Simulation time: 0 hr 2 min 14 sec) 
Finished CPU 0 instructions: 50000002 cycles: 30274393 cumulative IPC: 1.65156 (Simulation time: 0 hr 2 min 14 sec) 

ChampSim completed all CPUs

Region of Interest Statistics

CPU 0 cumulative IPC: 1.65156 instructions: 50000002 cycles: 30274393
L1D TOTAL     ACCESS:   13006586  HIT:   12845595  MISS:     160991
L1D LOAD      ACCESS:    5109567  HIT:    5054619  MISS:      54948
L1D RFO       ACCESS:    2883436  HIT:    2849256  MISS:      34180
L1D PREFETCH  ACCESS:    5013583  HIT:    4941720  MISS:      71863
L1D WRITEBACK ACCESS:          0  HIT:          0  MISS:          0
L1D PREFETCH  REQUESTED:   12507050  ISSUED:   12320513  USEFUL:      53860  USELESS:      93134
L1D AVERAGE MISS LATENCY: 40.6363 cycles
L1I TOTAL     ACCESS:    8600456  HIT:    8266254  MISS:     334202
L1I LOAD      ACCESS:    8029729  HIT:    7992763  MISS:      36966
L1I RFO       ACCESS:          0  HIT:          0  MISS:          0
L1I PREFETCH  ACCESS:     570727  HIT:     273491  MISS:     297236
L1I WRITEBACK ACCESS:          0  HIT:          0  MISS:          0
L1I PREFETCH  REQUESTED:   11025040  ISSUED:    2706625  USEFUL:     479865  USELESS:      94722
L1I AVERAGE MISS LATENCY: 14.8345 cycles
L2C TOTAL     ACCESS:     712436  HIT:     673801  MISS:      38635
L2C LOAD      ACCESS:      87466  HIT:      80524  MISS:       6942
L2C RFO       ACCESS:      33947  HIT:      21881  MISS:      12066
L2C PREFETCH  ACCESS:     547946  HIT:     528392  MISS:      19554
L2C WRITEBACK ACCESS:      43077  HIT:      43004  MISS:         73
L2C PREFETCH  REQUESTED:     950113  ISSUED:     946308  USEFUL:      18195  USELESS:      21804
L2C AVERAGE MISS LATENCY: 107.37 cycles
LLC TOTAL     ACCESS:     129252  HIT:     100437  MISS:      28815
LLC LOAD      ACCESS:       6922  HIT:       4705  MISS:       2217
LLC RFO       ACCESS:      12066  HIT:        442  MISS:      11624
LLC PREFETCH  ACCESS:      96689  HIT:      81782  MISS:      14907
LLC WRITEBACK ACCESS:      13575  HIT:      13508  MISS:         67
LLC PREFETCH  REQUESTED:          0  ISSUED:          0  USEFUL:       3944  USELESS:      16172
LLC AVERAGE MISS LATENCY: 165.246 cycles
Major fault: 0 Minor fault: 1284
CPU 0 L1D next line prefetcher final stats

DRAM Statistics
 CHANNEL 0
 RQ ROW_BUFFER_HIT:       8946  ROW_BUFFER_MISS:      19802
 DBUS_CONGESTED:      12160
 WQ ROW_BUFFER_HIT:       2922  ROW_BUFFER_MISS:       9818  FULL:          0

 AVG_CONGESTED_CYCLE: 6

CPU 0 Branch Prediction Accuracy: 97.1633% MPKI: 1.73704 Average ROB Occupancy at Mispredict: 36.8043

Branch types
NOT_BRANCH: 46937910 93.8758%
BRANCH_DIRECT_JUMP: 170816 0.341632%
BRANCH_INDIRECT: 0 0%
BRANCH_CONDITIONAL: 2532772 5.06554%
BRANCH_DIRECT_CALL: 114227 0.228454%
BRANCH_INDIRECT_CALL: 64863 0.129726%
BRANCH_RETURN: 179089 0.358178%
BRANCH_OTHER: 0 0%

