Initialize SIGNATURE TABLE
ST_SET: 1
ST_WAY: 256
ST_TAG_BIT: 16
ST_TAG_MASK: ffff

Initialize PATTERN TABLE
PT_SET: 512
PT_WAY: 4
SIG_DELTA_BIT: 7
C_SIG_BIT: 4
C_DELTA_BIT: 4

Initialize PREFETCH FILTER
FILTER_SET: 1024

*** ChampSim Multicore Out-of-Order Simulator ***

Warmup Instructions: 50000000
Simulation Instructions: 50000000
Number of CPUs: 1
LLC sets: 2048
LLC ways: 16
Off-chip DRAM Size: 4096 MB Channels: 1 Width: 64-bit Data Rate: 3200 MT/s

CPU 0 runs /home/tongjie/ChampSim-master/ipc1_public/spec_perlbench_001.champsimtrace.xz
CPU 0 L1D next line prefetcher
Heartbeat CPU 0 instructions: 10000000 cycles: 3277546 heartbeat IPC: 3.05106 cumulative IPC: 3.05106 (Simulation time: 0 hr 0 min 22 sec) 
Heartbeat CPU 0 instructions: 20000000 cycles: 6545415 heartbeat IPC: 3.0601 cumulative IPC: 3.05557 (Simulation time: 0 hr 0 min 46 sec) 
Heartbeat CPU 0 instructions: 30000002 cycles: 9867812 heartbeat IPC: 3.00988 cumulative IPC: 3.04019 (Simulation time: 0 hr 1 min 12 sec) 
Heartbeat CPU 0 instructions: 40000002 cycles: 13125126 heartbeat IPC: 3.07001 cumulative IPC: 3.04759 (Simulation time: 0 hr 1 min 34 sec) 
Heartbeat CPU 0 instructions: 50000001 cycles: 16399186 heartbeat IPC: 3.05431 cumulative IPC: 3.04893 (Simulation time: 0 hr 1 min 54 sec) 

Warmup complete CPU 0 instructions: 50000001 cycles: 16399186 (Simulation time: 0 hr 1 min 54 sec) 

Heartbeat CPU 0 instructions: 60000001 cycles: 25133750 heartbeat IPC: 1.14488 cumulative IPC: 1.14488 (Simulation time: 0 hr 2 min 18 sec) 
Heartbeat CPU 0 instructions: 70000000 cycles: 33871556 heartbeat IPC: 1.14445 cumulative IPC: 1.14466 (Simulation time: 0 hr 2 min 42 sec) 
Heartbeat CPU 0 instructions: 80000000 cycles: 42577439 heartbeat IPC: 1.14865 cumulative IPC: 1.14599 (Simulation time: 0 hr 3 min 3 sec) 
Heartbeat CPU 0 instructions: 90000000 cycles: 48445966 heartbeat IPC: 1.70401 cumulative IPC: 1.24818 (Simulation time: 0 hr 3 min 18 sec) 
Heartbeat CPU 0 instructions: 100000002 cycles: 54475745 heartbeat IPC: 1.65844 cumulative IPC: 1.31314 (Simulation time: 0 hr 3 min 33 sec) 
Finished CPU 0 instructions: 50000001 cycles: 38076559 cumulative IPC: 1.31314 (Simulation time: 0 hr 3 min 33 sec) 

ChampSim completed all CPUs

Region of Interest Statistics

CPU 0 cumulative IPC: 1.31314 instructions: 50000001 cycles: 38076559
L1D TOTAL     ACCESS:   20915383  HIT:   20500237  MISS:     415146
L1D LOAD      ACCESS:    7281233  HIT:    7067651  MISS:     213582
L1D RFO       ACCESS:    6547207  HIT:    6528716  MISS:      18491
L1D PREFETCH  ACCESS:    7086943  HIT:    6903870  MISS:     183073
L1D WRITEBACK ACCESS:          0  HIT:          0  MISS:          0
L1D PREFETCH  REQUESTED:   16228022  ISSUED:   15934649  USEFUL:     121253  USELESS:     277714
L1D AVERAGE MISS LATENCY: 58.8056 cycles
L1I TOTAL     ACCESS:   12182504  HIT:   10544959  MISS:    1637545
L1I LOAD      ACCESS:    9217147  HIT:    8978103  MISS:     239044
L1I RFO       ACCESS:          0  HIT:          0  MISS:          0
L1I PREFETCH  ACCESS:    2965357  HIT:    1566856  MISS:    1398501
L1I WRITEBACK ACCESS:          0  HIT:          0  MISS:          0
L1I PREFETCH  REQUESTED:   70706870  ISSUED:   13805297  USEFUL:     821228  USELESS:    1830073
L1I AVERAGE MISS LATENCY: 15.5787 cycles
L2C TOTAL     ACCESS:    2800747  HIT:    2635419  MISS:     165328
L2C LOAD      ACCESS:     422486  HIT:     333703  MISS:      88783
L2C RFO       ACCESS:      18268  HIT:      12715  MISS:       5553
L2C PREFETCH  ACCESS:    2281035  HIT:    2210526  MISS:      70509
L2C WRITEBACK ACCESS:      78958  HIT:      78475  MISS:        483
L2C PREFETCH  REQUESTED:    2975484  ISSUED:    2947499  USEFUL:      11084  USELESS:     131156
L2C AVERAGE MISS LATENCY: 119.432 cycles
LLC TOTAL     ACCESS:     508141  HIT:     370353  MISS:     137788
LLC LOAD      ACCESS:      88773  HIT:      37540  MISS:      51233
LLC RFO       ACCESS:       5553  HIT:       2497  MISS:       3056
LLC PREFETCH  ACCESS:     387794  HIT:     304703  MISS:      83091
LLC WRITEBACK ACCESS:      26021  HIT:      25613  MISS:        408
LLC PREFETCH  REQUESTED:          0  ISSUED:          0  USEFUL:      25948  USELESS:     124270
LLC AVERAGE MISS LATENCY: 157.878 cycles
Major fault: 0 Minor fault: 6364
CPU 0 L1D next line prefetcher final stats

DRAM Statistics
 CHANNEL 0
 RQ ROW_BUFFER_HIT:      31299  ROW_BUFFER_MISS:     106080
 DBUS_CONGESTED:      53847
 WQ ROW_BUFFER_HIT:       4293  ROW_BUFFER_MISS:      12892  FULL:          0

 AVG_CONGESTED_CYCLE: 4

CPU 0 Branch Prediction Accuracy: 98.7418% MPKI: 2.47758 Average ROB Occupancy at Mispredict: 70.3867

Branch types
NOT_BRANCH: 40154109 80.3082%
BRANCH_DIRECT_JUMP: 817094 1.63419%
BRANCH_INDIRECT: 303788 0.607576%
BRANCH_CONDITIONAL: 7492104 14.9842%
BRANCH_DIRECT_CALL: 471777 0.943554%
BRANCH_INDIRECT_CALL: 144546 0.289092%
BRANCH_RETURN: 616324 1.23265%
BRANCH_OTHER: 0 0%

