Initialize SIGNATURE TABLE
ST_SET: 1
ST_WAY: 256
ST_TAG_BIT: 16
ST_TAG_MASK: ffff

Initialize PATTERN TABLE
PT_SET: 512
PT_WAY: 4
SIG_DELTA_BIT: 7
C_SIG_BIT: 4
C_DELTA_BIT: 4

Initialize PREFETCH FILTER
FILTER_SET: 1024

*** ChampSim Multicore Out-of-Order Simulator ***

Warmup Instructions: 50000000
Simulation Instructions: 50000000
Number of CPUs: 1
LLC sets: 2048
LLC ways: 16
Off-chip DRAM Size: 4096 MB Channels: 1 Width: 64-bit Data Rate: 3200 MT/s

CPU 0 runs /home/tongjie/ChampSim-master/ipc1_public/spec_gcc_003.champsimtrace.xz
CPU 0 L1D next line prefetcher
Heartbeat CPU 0 instructions: 10000001 cycles: 3487097 heartbeat IPC: 2.86772 cumulative IPC: 2.86772 (Simulation time: 0 hr 0 min 18 sec) 
Heartbeat CPU 0 instructions: 20000000 cycles: 6957399 heartbeat IPC: 2.88159 cumulative IPC: 2.87464 (Simulation time: 0 hr 0 min 37 sec) 
Heartbeat CPU 0 instructions: 30000002 cycles: 10406020 heartbeat IPC: 2.89971 cumulative IPC: 2.88295 (Simulation time: 0 hr 0 min 55 sec) 
Heartbeat CPU 0 instructions: 40000000 cycles: 13873280 heartbeat IPC: 2.88412 cumulative IPC: 2.88324 (Simulation time: 0 hr 1 min 12 sec) 
Heartbeat CPU 0 instructions: 50000001 cycles: 17185105 heartbeat IPC: 3.01948 cumulative IPC: 2.9095 (Simulation time: 0 hr 1 min 30 sec) 

Warmup complete CPU 0 instructions: 50000001 cycles: 17185105 (Simulation time: 0 hr 1 min 30 sec) 

Heartbeat CPU 0 instructions: 60000000 cycles: 57543332 heartbeat IPC: 0.247781 cumulative IPC: 0.247781 (Simulation time: 0 hr 2 min 17 sec) 
Heartbeat CPU 0 instructions: 70000000 cycles: 100853095 heartbeat IPC: 0.230895 cumulative IPC: 0.23904 (Simulation time: 0 hr 3 min 5 sec) 
Heartbeat CPU 0 instructions: 80000003 cycles: 144880858 heartbeat IPC: 0.227129 cumulative IPC: 0.234933 (Simulation time: 0 hr 3 min 52 sec) 
Heartbeat CPU 0 instructions: 90000002 cycles: 182169436 heartbeat IPC: 0.268179 cumulative IPC: 0.242447 (Simulation time: 0 hr 4 min 33 sec) 
Heartbeat CPU 0 instructions: 100000001 cycles: 228724128 heartbeat IPC: 0.214801 cumulative IPC: 0.236363 (Simulation time: 0 hr 5 min 21 sec) 
Finished CPU 0 instructions: 50000000 cycles: 211539023 cumulative IPC: 0.236363 (Simulation time: 0 hr 5 min 21 sec) 

ChampSim completed all CPUs

Region of Interest Statistics

CPU 0 cumulative IPC: 0.236363 instructions: 50000000 cycles: 211539023
L1D TOTAL     ACCESS:   16947103  HIT:   11222792  MISS:    5724311
L1D LOAD      ACCESS:    4610945  HIT:    4228295  MISS:     382650
L1D RFO       ACCESS:    8213946  HIT:    3162353  MISS:    5051593
L1D PREFETCH  ACCESS:    4122212  HIT:    3832144  MISS:     290068
L1D WRITEBACK ACCESS:          0  HIT:          0  MISS:          0
L1D PREFETCH  REQUESTED:   10679173  ISSUED:   10524786  USEFUL:     389577  USELESS:     271005
L1D AVERAGE MISS LATENCY: 508.564 cycles
L1I TOTAL     ACCESS:   13719673  HIT:   12231551  MISS:    1488122
L1I LOAD      ACCESS:   11290855  HIT:   11082716  MISS:     208139
L1I RFO       ACCESS:          0  HIT:          0  MISS:          0
L1I PREFETCH  ACCESS:    2428818  HIT:    1148835  MISS:    1279983
L1I WRITEBACK ACCESS:          0  HIT:          0  MISS:          0
L1I PREFETCH  REQUESTED:   62533640  ISSUED:   11820093  USEFUL:    1323400  USELESS:    1107853
L1I AVERAGE MISS LATENCY: 42.3768 cycles
L2C TOTAL     ACCESS:   12796916  HIT:    6689284  MISS:    6107632
L2C LOAD      ACCESS:     371416  HIT:     160193  MISS:     211223
L2C RFO       ACCESS:    5049806  HIT:       6462  MISS:    5043344
L2C PREFETCH  ACCESS:    2217840  HIT:    1365200  MISS:     852640
L2C WRITEBACK ACCESS:    5157854  HIT:    5157429  MISS:        425
L2C PREFETCH  REQUESTED:    5292856  ISSUED:    5247547  USEFUL:     117829  USELESS:    1840378
L2C AVERAGE MISS LATENCY: 472.455 cycles
LLC TOTAL     ACCESS:   12080991  HIT:    7375097  MISS:    4705894
LLC LOAD      ACCESS:     211181  HIT:     161483  MISS:      49698
LLC RFO       ACCESS:    5043345  HIT:     606910  MISS:    4436435
LLC PREFETCH  ACCESS:    1692620  HIT:    1472859  MISS:     219761
LLC WRITEBACK ACCESS:    5133845  HIT:    5133845  MISS:          0
LLC PREFETCH  REQUESTED:          0  ISSUED:          0  USEFUL:      41201  USELESS:     424990
LLC AVERAGE MISS LATENCY: 580.641 cycles
Major fault: 0 Minor fault: 2817
CPU 0 L1D next line prefetcher final stats

DRAM Statistics
 CHANNEL 0
 RQ ROW_BUFFER_HIT:    1404334  ROW_BUFFER_MISS:    3301511
 DBUS_CONGESTED:    8226412
 WQ ROW_BUFFER_HIT:    1199795  ROW_BUFFER_MISS:    3265590  FULL:          0

 AVG_CONGESTED_CYCLE: 6

CPU 0 Branch Prediction Accuracy: 99.665% MPKI: 0.78342 Average ROB Occupancy at Mispredict: 111.97

Branch types
NOT_BRANCH: 38305861 76.6117%
BRANCH_DIRECT_JUMP: 384281 0.768562%
BRANCH_INDIRECT: 71949 0.143898%
BRANCH_CONDITIONAL: 9879826 19.7597%
BRANCH_DIRECT_CALL: 650586 1.30117%
BRANCH_INDIRECT_CALL: 28456 0.056912%
BRANCH_RETURN: 679046 1.35809%
BRANCH_OTHER: 0 0%

