Initialize SIGNATURE TABLE
ST_SET: 1
ST_WAY: 256
ST_TAG_BIT: 16
ST_TAG_MASK: ffff

Initialize PATTERN TABLE
PT_SET: 512
PT_WAY: 4
SIG_DELTA_BIT: 7
C_SIG_BIT: 4
C_DELTA_BIT: 4

Initialize PREFETCH FILTER
FILTER_SET: 1024

*** ChampSim Multicore Out-of-Order Simulator ***

Warmup Instructions: 50000000
Simulation Instructions: 50000000
Number of CPUs: 1
LLC sets: 2048
LLC ways: 16
Off-chip DRAM Size: 4096 MB Channels: 1 Width: 64-bit Data Rate: 3200 MT/s

CPU 0 runs /home/tongjie/ChampSim-master/ipc1_public/client_004.champsimtrace.xz
CPU 0 L1D next line prefetcher
Heartbeat CPU 0 instructions: 10000000 cycles: 3593656 heartbeat IPC: 2.78268 cumulative IPC: 2.78268 (Simulation time: 0 hr 0 min 26 sec) 
Heartbeat CPU 0 instructions: 20000003 cycles: 7058524 heartbeat IPC: 2.88611 cumulative IPC: 2.83345 (Simulation time: 0 hr 0 min 48 sec) 
Heartbeat CPU 0 instructions: 30000000 cycles: 10650511 heartbeat IPC: 2.78397 cumulative IPC: 2.81677 (Simulation time: 0 hr 1 min 10 sec) 
Heartbeat CPU 0 instructions: 40000003 cycles: 14331406 heartbeat IPC: 2.71673 cumulative IPC: 2.79107 (Simulation time: 0 hr 1 min 33 sec) 
Heartbeat CPU 0 instructions: 50000001 cycles: 17851617 heartbeat IPC: 2.84074 cumulative IPC: 2.80087 (Simulation time: 0 hr 1 min 56 sec) 

Warmup complete CPU 0 instructions: 50000001 cycles: 17851617 (Simulation time: 0 hr 1 min 56 sec) 

Heartbeat CPU 0 instructions: 60000002 cycles: 26830140 heartbeat IPC: 1.11377 cumulative IPC: 1.11377 (Simulation time: 0 hr 2 min 17 sec) 
Heartbeat CPU 0 instructions: 70000001 cycles: 35544538 heartbeat IPC: 1.14753 cumulative IPC: 1.1304 (Simulation time: 0 hr 2 min 38 sec) 
Heartbeat CPU 0 instructions: 80000002 cycles: 45324152 heartbeat IPC: 1.02254 cumulative IPC: 1.092 (Simulation time: 0 hr 2 min 59 sec) 
Heartbeat CPU 0 instructions: 90000000 cycles: 54281354 heartbeat IPC: 1.11642 cumulative IPC: 1.098 (Simulation time: 0 hr 3 min 20 sec) 
Heartbeat CPU 0 instructions: 100000001 cycles: 63142201 heartbeat IPC: 1.12856 cumulative IPC: 1.10398 (Simulation time: 0 hr 3 min 41 sec) 
Finished CPU 0 instructions: 50000000 cycles: 45290584 cumulative IPC: 1.10398 (Simulation time: 0 hr 3 min 41 sec) 

ChampSim completed all CPUs

Region of Interest Statistics

CPU 0 cumulative IPC: 1.10398 instructions: 50000000 cycles: 45290584
L1D TOTAL     ACCESS:   22361854  HIT:   21472439  MISS:     889415
L1D LOAD      ACCESS:    8903895  HIT:    8509905  MISS:     393990
L1D RFO       ACCESS:    4841680  HIT:    4720574  MISS:     121106
L1D PREFETCH  ACCESS:    8616279  HIT:    8241960  MISS:     374319
L1D WRITEBACK ACCESS:          0  HIT:          0  MISS:          0
L1D PREFETCH  REQUESTED:   20003719  ISSUED:   19564526  USEFUL:     247935  USELESS:     442728
L1D AVERAGE MISS LATENCY: 28.9307 cycles
L1I TOTAL     ACCESS:    9857994  HIT:    9226182  MISS:     631812
L1I LOAD      ACCESS:    9437074  HIT:    8960742  MISS:     476332
L1I RFO       ACCESS:          0  HIT:          0  MISS:          0
L1I PREFETCH  ACCESS:     420920  HIT:     265440  MISS:     155480
L1I WRITEBACK ACCESS:          0  HIT:          0  MISS:          0
L1I PREFETCH  REQUESTED:   11113554  ISSUED:    2973635  USEFUL:     167573  USELESS:     285942
L1I AVERAGE MISS LATENCY: 25.7509 cycles
L2C TOTAL     ACCESS:    2452027  HIT:    2179217  MISS:     272810
L2C LOAD      ACCESS:     849927  HIT:     707133  MISS:     142794
L2C RFO       ACCESS:     117193  HIT:      47539  MISS:      69654
L2C PREFETCH  ACCESS:    1262790  HIT:    1202940  MISS:      59850
L2C WRITEBACK ACCESS:     222117  HIT:     221605  MISS:        512
L2C PREFETCH  REQUESTED:    2692611  ISSUED:    2653479  USEFUL:      30613  USELESS:     121772
L2C AVERAGE MISS LATENCY: 75.0192 cycles
LLC TOTAL     ACCESS:     683764  HIT:     559062  MISS:     124702
LLC LOAD      ACCESS:     142709  HIT:     110458  MISS:      32251
LLC RFO       ACCESS:      69654  HIT:      39980  MISS:      29674
LLC PREFETCH  ACCESS:     373803  HIT:     311291  MISS:      62512
LLC WRITEBACK ACCESS:      97598  HIT:      97333  MISS:        265
LLC PREFETCH  REQUESTED:          0  ISSUED:          0  USEFUL:      59590  USELESS:      83043
LLC AVERAGE MISS LATENCY: 165.496 cycles
Major fault: 0 Minor fault: 3976
CPU 0 L1D next line prefetcher final stats

DRAM Statistics
 CHANNEL 0
 RQ ROW_BUFFER_HIT:      30623  ROW_BUFFER_MISS:      93807
 DBUS_CONGESTED:      51405
 WQ ROW_BUFFER_HIT:       9640  ROW_BUFFER_MISS:      32608  FULL:          0

 AVG_CONGESTED_CYCLE: 5

CPU 0 Branch Prediction Accuracy: 94.1242% MPKI: 11.6089 Average ROB Occupancy at Mispredict: 46.8041

Branch types
NOT_BRANCH: 40121055 80.2421%
BRANCH_DIRECT_JUMP: 644555 1.28911%
BRANCH_INDIRECT: 201946 0.403892%
BRANCH_CONDITIONAL: 7003556 14.0071%
BRANCH_DIRECT_CALL: 564820 1.12964%
BRANCH_INDIRECT_CALL: 445012 0.890024%
BRANCH_RETURN: 1018716 2.03743%
BRANCH_OTHER: 0 0%

