Initialize SIGNATURE TABLE
ST_SET: 1
ST_WAY: 256
ST_TAG_BIT: 16
ST_TAG_MASK: ffff

Initialize PATTERN TABLE
PT_SET: 512
PT_WAY: 4
SIG_DELTA_BIT: 7
C_SIG_BIT: 4
C_DELTA_BIT: 4

Initialize PREFETCH FILTER
FILTER_SET: 1024

*** ChampSim Multicore Out-of-Order Simulator ***

Warmup Instructions: 50000000
Simulation Instructions: 50000000
Number of CPUs: 1
LLC sets: 2048
LLC ways: 16
Off-chip DRAM Size: 4096 MB Channels: 1 Width: 64-bit Data Rate: 3200 MT/s

CPU 0 runs /home/tongjie/ChampSim-master/ipc1_public/client_001.champsimtrace.xz
CPU 0 L1D next line prefetcher
Heartbeat CPU 0 instructions: 10000003 cycles: 3411281 heartbeat IPC: 2.93145 cumulative IPC: 2.93145 (Simulation time: 0 hr 0 min 24 sec) 
Heartbeat CPU 0 instructions: 20000001 cycles: 7120165 heartbeat IPC: 2.69623 cumulative IPC: 2.80892 (Simulation time: 0 hr 0 min 45 sec) 
Heartbeat CPU 0 instructions: 30000001 cycles: 10484067 heartbeat IPC: 2.97274 cumulative IPC: 2.86149 (Simulation time: 0 hr 1 min 5 sec) 
Heartbeat CPU 0 instructions: 40000003 cycles: 14354025 heartbeat IPC: 2.58401 cumulative IPC: 2.78667 (Simulation time: 0 hr 1 min 27 sec) 
Heartbeat CPU 0 instructions: 50000003 cycles: 17652078 heartbeat IPC: 3.03209 cumulative IPC: 2.83253 (Simulation time: 0 hr 1 min 47 sec) 

Warmup complete CPU 0 instructions: 50000003 cycles: 17652078 (Simulation time: 0 hr 1 min 47 sec) 

Heartbeat CPU 0 instructions: 60000000 cycles: 26829486 heartbeat IPC: 1.08963 cumulative IPC: 1.08963 (Simulation time: 0 hr 2 min 8 sec) 
Heartbeat CPU 0 instructions: 70000000 cycles: 33321487 heartbeat IPC: 1.54036 cumulative IPC: 1.27637 (Simulation time: 0 hr 2 min 27 sec) 
Heartbeat CPU 0 instructions: 80000002 cycles: 42751809 heartbeat IPC: 1.06041 cumulative IPC: 1.19523 (Simulation time: 0 hr 2 min 51 sec) 
Heartbeat CPU 0 instructions: 90000000 cycles: 49138331 heartbeat IPC: 1.5658 cumulative IPC: 1.2704 (Simulation time: 0 hr 3 min 9 sec) 
Heartbeat CPU 0 instructions: 100000002 cycles: 58095518 heartbeat IPC: 1.11642 cumulative IPC: 1.23629 (Simulation time: 0 hr 3 min 29 sec) 
Finished CPU 0 instructions: 50000003 cycles: 40443441 cumulative IPC: 1.23629 (Simulation time: 0 hr 3 min 29 sec) 

ChampSim completed all CPUs

Region of Interest Statistics

CPU 0 cumulative IPC: 1.23629 instructions: 50000003 cycles: 40443441
L1D TOTAL     ACCESS:   21300261  HIT:   20463756  MISS:     836505
L1D LOAD      ACCESS:    8847945  HIT:    8454346  MISS:     393599
L1D RFO       ACCESS:    4044872  HIT:    3986032  MISS:      58840
L1D PREFETCH  ACCESS:    8407444  HIT:    8023378  MISS:     384066
L1D WRITEBACK ACCESS:          0  HIT:          0  MISS:          0
L1D PREFETCH  REQUESTED:   19932840  ISSUED:   19378485  USEFUL:     287597  USELESS:     617674
L1D AVERAGE MISS LATENCY: 46.697 cycles
L1I TOTAL     ACCESS:    9611050  HIT:    9224844  MISS:     386206
L1I LOAD      ACCESS:    8961156  HIT:    8913921  MISS:      47235
L1I RFO       ACCESS:          0  HIT:          0  MISS:          0
L1I PREFETCH  ACCESS:     649894  HIT:     310923  MISS:     338971
L1I WRITEBACK ACCESS:          0  HIT:          0  MISS:          0
L1I PREFETCH  REQUESTED:   14842298  ISSUED:    3546878  USEFUL:     554960  USELESS:     169507
L1I AVERAGE MISS LATENCY: 20.7368 cycles
L2C TOTAL     ACCESS:    1886794  HIT:    1585234  MISS:     301560
L2C LOAD      ACCESS:     416214  HIT:     294363  MISS:     121851
L2C RFO       ACCESS:      58040  HIT:      21608  MISS:      36432
L2C PREFETCH  ACCESS:    1222941  HIT:    1079921  MISS:     143020
L2C WRITEBACK ACCESS:     189599  HIT:     189342  MISS:        257
L2C PREFETCH  REQUESTED:    3098290  ISSUED:    3013304  USEFUL:      32761  USELESS:     280213
L2C AVERAGE MISS LATENCY: 100.711 cycles
LLC TOTAL     ACCESS:     830048  HIT:     636247  MISS:     193801
LLC LOAD      ACCESS:     121503  HIT:      77925  MISS:      43578
LLC RFO       ACCESS:      36432  HIT:       8368  MISS:      28064
LLC PREFETCH  ACCESS:     566295  HIT:     444803  MISS:     121492
LLC WRITEBACK ACCESS:     105818  HIT:     105151  MISS:        667
LLC PREFETCH  REQUESTED:          0  ISSUED:          0  USEFUL:      58213  USELESS:     154722
LLC AVERAGE MISS LATENCY: 181.073 cycles
Major fault: 0 Minor fault: 3433
CPU 0 L1D next line prefetcher final stats

DRAM Statistics
 CHANNEL 0
 RQ ROW_BUFFER_HIT:      46908  ROW_BUFFER_MISS:     146221
 DBUS_CONGESTED:     115905
 WQ ROW_BUFFER_HIT:      15905  ROW_BUFFER_MISS:      64493  FULL:          0

 AVG_CONGESTED_CYCLE: 5

CPU 0 Branch Prediction Accuracy: 97.9037% MPKI: 3.63418 Average ROB Occupancy at Mispredict: 82.7188

Branch types
NOT_BRANCH: 41331389 82.6628%
BRANCH_DIRECT_JUMP: 455615 0.91123%
BRANCH_INDIRECT: 20390 0.04078%
BRANCH_CONDITIONAL: 6745374 13.4907%
BRANCH_DIRECT_CALL: 494532 0.989064%
BRANCH_INDIRECT_CALL: 228815 0.45763%
BRANCH_RETURN: 723560 1.44712%
BRANCH_OTHER: 0 0%

