Initialize SIGNATURE TABLE
ST_SET: 1
ST_WAY: 256
ST_TAG_BIT: 16
ST_TAG_MASK: ffff

Initialize PATTERN TABLE
PT_SET: 512
PT_WAY: 4
SIG_DELTA_BIT: 7
C_SIG_BIT: 4
C_DELTA_BIT: 4

Initialize PREFETCH FILTER
FILTER_SET: 1024

*** ChampSim Multicore Out-of-Order Simulator ***

Warmup Instructions: 50000000
Simulation Instructions: 50000000
Number of CPUs: 1
LLC sets: 2048
LLC ways: 16
Off-chip DRAM Size: 4096 MB Channels: 1 Width: 64-bit Data Rate: 3200 MT/s

CPU 0 runs /home/tongjie/ChampSim-master/ipc1_public/client_005.champsimtrace.xz
CPU 0 L1D next line prefetcher
Heartbeat CPU 0 instructions: 10000001 cycles: 3292389 heartbeat IPC: 3.03731 cumulative IPC: 3.03731 (Simulation time: 0 hr 0 min 24 sec) 
Heartbeat CPU 0 instructions: 20000002 cycles: 6699216 heartbeat IPC: 2.93528 cumulative IPC: 2.98542 (Simulation time: 0 hr 0 min 48 sec) 
Heartbeat CPU 0 instructions: 30000001 cycles: 10392781 heartbeat IPC: 2.70741 cumulative IPC: 2.88662 (Simulation time: 0 hr 1 min 13 sec) 
Heartbeat CPU 0 instructions: 40000000 cycles: 14070903 heartbeat IPC: 2.71878 cumulative IPC: 2.84275 (Simulation time: 0 hr 1 min 38 sec) 
Heartbeat CPU 0 instructions: 50000001 cycles: 17344541 heartbeat IPC: 3.05471 cumulative IPC: 2.88275 (Simulation time: 0 hr 2 min 1 sec) 

Warmup complete CPU 0 instructions: 50000001 cycles: 17344541 (Simulation time: 0 hr 2 min 1 sec) 

Heartbeat CPU 0 instructions: 60000002 cycles: 26396699 heartbeat IPC: 1.10471 cumulative IPC: 1.10471 (Simulation time: 0 hr 2 min 25 sec) 
Heartbeat CPU 0 instructions: 70000003 cycles: 34435492 heartbeat IPC: 1.24397 cumulative IPC: 1.17021 (Simulation time: 0 hr 2 min 48 sec) 
Heartbeat CPU 0 instructions: 80000001 cycles: 41731584 heartbeat IPC: 1.3706 cumulative IPC: 1.23016 (Simulation time: 0 hr 3 min 13 sec) 
Heartbeat CPU 0 instructions: 90000002 cycles: 51546390 heartbeat IPC: 1.01887 cumulative IPC: 1.16953 (Simulation time: 0 hr 3 min 38 sec) 
Heartbeat CPU 0 instructions: 100000002 cycles: 59807739 heartbeat IPC: 1.21046 cumulative IPC: 1.17749 (Simulation time: 0 hr 3 min 57 sec) 
Finished CPU 0 instructions: 50000001 cycles: 42463198 cumulative IPC: 1.17749 (Simulation time: 0 hr 3 min 57 sec) 

ChampSim completed all CPUs

Region of Interest Statistics

CPU 0 cumulative IPC: 1.17749 instructions: 50000001 cycles: 42463198
L1D TOTAL     ACCESS:   20072418  HIT:   19536252  MISS:     536166
L1D LOAD      ACCESS:    6856012  HIT:    6684950  MISS:     171062
L1D RFO       ACCESS:    6819685  HIT:    6635679  MISS:     184006
L1D PREFETCH  ACCESS:    6396721  HIT:    6215623  MISS:     181098
L1D WRITEBACK ACCESS:          0  HIT:          0  MISS:          0
L1D PREFETCH  REQUESTED:   15840035  ISSUED:   14947735  USEFUL:     133334  USELESS:     235823
L1D AVERAGE MISS LATENCY: 91.9339 cycles
L1I TOTAL     ACCESS:   10916572  HIT:    9633858  MISS:    1282714
L1I LOAD      ACCESS:    9334611  HIT:    8775241  MISS:     559370
L1I RFO       ACCESS:          0  HIT:          0  MISS:          0
L1I PREFETCH  ACCESS:    1581961  HIT:     858617  MISS:     723344
L1I WRITEBACK ACCESS:          0  HIT:          0  MISS:          0
L1I PREFETCH  REQUESTED:   27931550  ISSUED:    6213666  USEFUL:     478909  USELESS:     834285
L1I AVERAGE MISS LATENCY: 18.6618 cycles
L2C TOTAL     ACCESS:    2821345  HIT:    2437611  MISS:     383734
L2C LOAD      ACCESS:     709569  HIT:     578478  MISS:     131091
L2C RFO       ACCESS:     180480  HIT:      32193  MISS:     148287
L2C PREFETCH  ACCESS:    1678239  HIT:    1575270  MISS:     102969
L2C WRITEBACK ACCESS:     253057  HIT:     251670  MISS:       1387
L2C PREFETCH  REQUESTED:    2971720  ISSUED:    2950347  USEFUL:      20818  USELESS:     185408
L2C AVERAGE MISS LATENCY: 123.385 cycles
LLC TOTAL     ACCESS:     977815  HIT:     680921  MISS:     296894
LLC LOAD      ACCESS:     131052  HIT:      82641  MISS:      48411
LLC RFO       ACCESS:     148287  HIT:      17928  MISS:     130359
LLC PREFETCH  ACCESS:     499696  HIT:     382488  MISS:     117208
LLC WRITEBACK ACCESS:     198780  HIT:     197864  MISS:        916
LLC PREFETCH  REQUESTED:          0  ISSUED:          0  USEFUL:      60570  USELESS:     160526
LLC AVERAGE MISS LATENCY: 164.392 cycles
Major fault: 0 Minor fault: 6084
CPU 0 L1D next line prefetcher final stats

DRAM Statistics
 CHANNEL 0
 RQ ROW_BUFFER_HIT:      95322  ROW_BUFFER_MISS:     200638
 DBUS_CONGESTED:     231861
 WQ ROW_BUFFER_HIT:      51463  ROW_BUFFER_MISS:     131017  FULL:          0

 AVG_CONGESTED_CYCLE: 6

CPU 0 Branch Prediction Accuracy: 97.8666% MPKI: 3.9013 Average ROB Occupancy at Mispredict: 71.5276

Branch types
NOT_BRANCH: 40856329 81.7127%
BRANCH_DIRECT_JUMP: 484667 0.969334%
BRANCH_INDIRECT: 85086 0.170172%
BRANCH_CONDITIONAL: 6230887 12.4618%
BRANCH_DIRECT_CALL: 1028917 2.05783%
BRANCH_INDIRECT_CALL: 141825 0.28365%
BRANCH_RETURN: 1171985 2.34397%
BRANCH_OTHER: 0 0%

