Initialize SIGNATURE TABLE
ST_SET: 1
ST_WAY: 256
ST_TAG_BIT: 16
ST_TAG_MASK: ffff

Initialize PATTERN TABLE
PT_SET: 512
PT_WAY: 4
SIG_DELTA_BIT: 7
C_SIG_BIT: 4
C_DELTA_BIT: 4

Initialize PREFETCH FILTER
FILTER_SET: 1024

*** ChampSim Multicore Out-of-Order Simulator ***

Warmup Instructions: 50000000
Simulation Instructions: 50000000
Number of CPUs: 1
LLC sets: 2048
LLC ways: 16
Off-chip DRAM Size: 4096 MB Channels: 1 Width: 64-bit Data Rate: 3200 MT/s

CPU 0 runs /home/tongjie/ChampSim-master/ipc1_public/server_019.champsimtrace.xz
CPU 0 L1D next line prefetcher
Heartbeat CPU 0 instructions: 10000002 cycles: 3626187 heartbeat IPC: 2.75772 cumulative IPC: 2.75772 (Simulation time: 0 hr 0 min 26 sec) 
Heartbeat CPU 0 instructions: 20000003 cycles: 7253681 heartbeat IPC: 2.75672 cumulative IPC: 2.75722 (Simulation time: 0 hr 0 min 51 sec) 
Heartbeat CPU 0 instructions: 30000002 cycles: 10879876 heartbeat IPC: 2.75771 cumulative IPC: 2.75738 (Simulation time: 0 hr 1 min 17 sec) 
Heartbeat CPU 0 instructions: 40000002 cycles: 14517749 heartbeat IPC: 2.74886 cumulative IPC: 2.75525 (Simulation time: 0 hr 1 min 43 sec) 
Heartbeat CPU 0 instructions: 50000001 cycles: 18144551 heartbeat IPC: 2.75725 cumulative IPC: 2.75565 (Simulation time: 0 hr 2 min 9 sec) 

Warmup complete CPU 0 instructions: 50000001 cycles: 18144551 (Simulation time: 0 hr 2 min 9 sec) 

Heartbeat CPU 0 instructions: 60000000 cycles: 38331546 heartbeat IPC: 0.495368 cumulative IPC: 0.495368 (Simulation time: 0 hr 2 min 45 sec) 
Heartbeat CPU 0 instructions: 70000002 cycles: 62235858 heartbeat IPC: 0.418335 cumulative IPC: 0.453604 (Simulation time: 0 hr 3 min 20 sec) 
Heartbeat CPU 0 instructions: 80000001 cycles: 83117722 heartbeat IPC: 0.478884 cumulative IPC: 0.461729 (Simulation time: 0 hr 3 min 54 sec) 
Heartbeat CPU 0 instructions: 90000002 cycles: 101249111 heartbeat IPC: 0.55153 cumulative IPC: 0.481321 (Simulation time: 0 hr 4 min 28 sec) 
Heartbeat CPU 0 instructions: 100000002 cycles: 119349931 heartbeat IPC: 0.552461 cumulative IPC: 0.494045 (Simulation time: 0 hr 5 min 2 sec) 
Finished CPU 0 instructions: 50000001 cycles: 101205380 cumulative IPC: 0.494045 (Simulation time: 0 hr 5 min 2 sec) 

ChampSim completed all CPUs

Region of Interest Statistics

CPU 0 cumulative IPC: 0.494045 instructions: 50000001 cycles: 101205380
L1D TOTAL     ACCESS:   18357090  HIT:   16133498  MISS:    2223592
L1D LOAD      ACCESS:    6993157  HIT:    6230307  MISS:     762850
L1D RFO       ACCESS:    5543057  HIT:    4641203  MISS:     901854
L1D PREFETCH  ACCESS:    5820876  HIT:    5261988  MISS:     558888
L1D WRITEBACK ACCESS:          0  HIT:          0  MISS:          0
L1D PREFETCH  REQUESTED:   16501621  ISSUED:   16106152  USEFUL:     608587  USELESS:     698943
L1D AVERAGE MISS LATENCY: 185.218 cycles
L1I TOTAL     ACCESS:   12806365  HIT:   10606131  MISS:    2200234
L1I LOAD      ACCESS:    9827524  HIT:    9627710  MISS:     199814
L1I RFO       ACCESS:          0  HIT:          0  MISS:          0
L1I PREFETCH  ACCESS:    2978841  HIT:     978421  MISS:    2000420
L1I WRITEBACK ACCESS:          0  HIT:          0  MISS:          0
L1I PREFETCH  REQUESTED:   77770303  ISSUED:   19199835  USEFUL:    4134575  USELESS:     172825
L1I AVERAGE MISS LATENCY: 18.9486 cycles
L2C TOTAL     ACCESS:    6491069  HIT:    4600103  MISS:    1890966
L2C LOAD      ACCESS:     700717  HIT:     350886  MISS:     349831
L2C RFO       ACCESS:     901471  HIT:      18231  MISS:     883240
L2C PREFETCH  ACCESS:    3714277  HIT:    3058642  MISS:     655635
L2C WRITEBACK ACCESS:    1174604  HIT:    1172344  MISS:       2260
L2C PREFETCH  REQUESTED:    9330249  ISSUED:    9167926  USEFUL:      88947  USELESS:    1196012
L2C AVERAGE MISS LATENCY: 222.723 cycles
LLC TOTAL     ACCESS:    4129667  HIT:    2508206  MISS:    1621461
LLC LOAD      ACCESS:     349763  HIT:     181634  MISS:     168129
LLC RFO       ACCESS:     883238  HIT:     114731  MISS:     768507
LLC PREFETCH  ACCESS:    1786014  HIT:    1103456  MISS:     682558
LLC WRITEBACK ACCESS:    1110652  HIT:    1108385  MISS:       2267
LLC PREFETCH  REQUESTED:          0  ISSUED:          0  USEFUL:      88247  USELESS:    1105380
LLC AVERAGE MISS LATENCY: 270.629 cycles
Major fault: 0 Minor fault: 25691
CPU 0 L1D next line prefetcher final stats

DRAM Statistics
 CHANNEL 0
 RQ ROW_BUFFER_HIT:     388545  ROW_BUFFER_MISS:    1230356
 DBUS_CONGESTED:    1582489
 WQ ROW_BUFFER_HIT:     277469  ROW_BUFFER_MISS:     657579  FULL:          0

 AVG_CONGESTED_CYCLE: 6

CPU 0 Branch Prediction Accuracy: 99.2186% MPKI: 1.32192 Average ROB Occupancy at Mispredict: 174.264

Branch types
NOT_BRANCH: 41540785 83.0816%
BRANCH_DIRECT_JUMP: 462384 0.924768%
BRANCH_INDIRECT: 45460 0.09092%
BRANCH_CONDITIONAL: 6209281 12.4186%
BRANCH_DIRECT_CALL: 666241 1.33248%
BRANCH_INDIRECT_CALL: 204728 0.409456%
BRANCH_RETURN: 870978 1.74196%
BRANCH_OTHER: 0 0%

