Initialize SIGNATURE TABLE
ST_SET: 1
ST_WAY: 256
ST_TAG_BIT: 16
ST_TAG_MASK: ffff

Initialize PATTERN TABLE
PT_SET: 512
PT_WAY: 4
SIG_DELTA_BIT: 7
C_SIG_BIT: 4
C_DELTA_BIT: 4

Initialize PREFETCH FILTER
FILTER_SET: 1024

*** ChampSim Multicore Out-of-Order Simulator ***

Warmup Instructions: 50000000
Simulation Instructions: 50000000
Number of CPUs: 1
LLC sets: 2048
LLC ways: 16
Off-chip DRAM Size: 4096 MB Channels: 1 Width: 64-bit Data Rate: 3200 MT/s

CPU 0 runs /home/tongjie/ChampSim-master/ipc1_public/server_025.champsimtrace.xz
CPU 0 L1D next line prefetcher
Heartbeat CPU 0 instructions: 10000003 cycles: 3538342 heartbeat IPC: 2.82618 cumulative IPC: 2.82618 (Simulation time: 0 hr 0 min 31 sec) 
Heartbeat CPU 0 instructions: 20000000 cycles: 7083492 heartbeat IPC: 2.82075 cumulative IPC: 2.82347 (Simulation time: 0 hr 0 min 58 sec) 
Heartbeat CPU 0 instructions: 30000001 cycles: 10621359 heartbeat IPC: 2.82656 cumulative IPC: 2.8245 (Simulation time: 0 hr 1 min 24 sec) 
Heartbeat CPU 0 instructions: 40000003 cycles: 14164747 heartbeat IPC: 2.82216 cumulative IPC: 2.82391 (Simulation time: 0 hr 1 min 52 sec) 
Heartbeat CPU 0 instructions: 50000001 cycles: 17706473 heartbeat IPC: 2.82348 cumulative IPC: 2.82383 (Simulation time: 0 hr 2 min 22 sec) 

Warmup complete CPU 0 instructions: 50000001 cycles: 17706473 (Simulation time: 0 hr 2 min 22 sec) 

Heartbeat CPU 0 instructions: 60000002 cycles: 25405675 heartbeat IPC: 1.29884 cumulative IPC: 1.29884 (Simulation time: 0 hr 2 min 52 sec) 
Heartbeat CPU 0 instructions: 70000000 cycles: 33161159 heartbeat IPC: 1.28941 cumulative IPC: 1.29411 (Simulation time: 0 hr 3 min 20 sec) 
Heartbeat CPU 0 instructions: 80000002 cycles: 40814932 heartbeat IPC: 1.30655 cumulative IPC: 1.29823 (Simulation time: 0 hr 3 min 49 sec) 
Heartbeat CPU 0 instructions: 90000001 cycles: 47946017 heartbeat IPC: 1.40231 cumulative IPC: 1.32277 (Simulation time: 0 hr 4 min 16 sec) 
Heartbeat CPU 0 instructions: 100000003 cycles: 54640687 heartbeat IPC: 1.49373 cumulative IPC: 1.35376 (Simulation time: 0 hr 4 min 41 sec) 
Finished CPU 0 instructions: 50000002 cycles: 36934214 cumulative IPC: 1.35376 (Simulation time: 0 hr 4 min 41 sec) 

ChampSim completed all CPUs

Region of Interest Statistics

CPU 0 cumulative IPC: 1.35376 instructions: 50000002 cycles: 36934214
L1D TOTAL     ACCESS:   20499932  HIT:   19074310  MISS:    1425622
L1D LOAD      ACCESS:    7212583  HIT:    6594779  MISS:     617804
L1D RFO       ACCESS:    6386921  HIT:    6138524  MISS:     248397
L1D PREFETCH  ACCESS:    6900428  HIT:    6341007  MISS:     559421
L1D WRITEBACK ACCESS:          0  HIT:          0  MISS:          0
L1D PREFETCH  REQUESTED:   16770241  ISSUED:   16417897  USEFUL:     301673  USELESS:     914879
L1D AVERAGE MISS LATENCY: 23.0766 cycles
L1I TOTAL     ACCESS:   13554756  HIT:   10082299  MISS:    3472457
L1I LOAD      ACCESS:    9457443  HIT:    8920625  MISS:     536818
L1I RFO       ACCESS:          0  HIT:          0  MISS:          0
L1I PREFETCH  ACCESS:    4097313  HIT:    1161674  MISS:    2935639
L1I WRITEBACK ACCESS:          0  HIT:          0  MISS:          0
L1I PREFETCH  REQUESTED:  109987175  ISSUED:   24500439  USEFUL:    4159843  USELESS:    1900483
L1I AVERAGE MISS LATENCY: 17.6253 cycles
L2C TOTAL     ACCESS:    6681731  HIT:    6039625  MISS:     642106
L2C LOAD      ACCESS:    1045713  HIT:     823063  MISS:     222650
L2C RFO       ACCESS:     246826  HIT:     169728  MISS:      77098
L2C PREFETCH  ACCESS:    4892505  HIT:    4555105  MISS:     337400
L2C WRITEBACK ACCESS:     496687  HIT:     491729  MISS:       4958
L2C PREFETCH  REQUESTED:    9579166  ISSUED:    9295891  USEFUL:      63311  USELESS:     654895
L2C AVERAGE MISS LATENCY: 37.5317 cycles
LLC TOTAL     ACCESS:    2053024  HIT:    2024899  MISS:      28125
LLC LOAD      ACCESS:     222517  HIT:     219023  MISS:       3494
LLC RFO       ACCESS:      77096  HIT:      66296  MISS:      10800
LLC PREFETCH  ACCESS:    1623576  HIT:    1609948  MISS:      13628
LLC WRITEBACK ACCESS:     129835  HIT:     129632  MISS:        203
LLC PREFETCH  REQUESTED:          0  ISSUED:          0  USEFUL:       4359  USELESS:      20314
LLC AVERAGE MISS LATENCY: 177.971 cycles
Major fault: 0 Minor fault: 2457
CPU 0 L1D next line prefetcher final stats

DRAM Statistics
 CHANNEL 0
 RQ ROW_BUFFER_HIT:       9193  ROW_BUFFER_MISS:      18722
 DBUS_CONGESTED:      18312
 WQ ROW_BUFFER_HIT:       1209  ROW_BUFFER_MISS:      11384  FULL:          0

 AVG_CONGESTED_CYCLE: 6

CPU 0 Branch Prediction Accuracy: 99.8142% MPKI: 0.34676 Average ROB Occupancy at Mispredict: 169.922

Branch types
NOT_BRANCH: 40668786 81.3376%
BRANCH_DIRECT_JUMP: 531700 1.0634%
BRANCH_INDIRECT: 199025 0.39805%
BRANCH_CONDITIONAL: 6211476 12.423%
BRANCH_DIRECT_CALL: 1010910 2.02182%
BRANCH_INDIRECT_CALL: 183501 0.367002%
BRANCH_RETURN: 1194412 2.38882%
BRANCH_OTHER: 0 0%

