Initialize SIGNATURE TABLE
ST_SET: 1
ST_WAY: 256
ST_TAG_BIT: 16
ST_TAG_MASK: ffff

Initialize PATTERN TABLE
PT_SET: 512
PT_WAY: 4
SIG_DELTA_BIT: 7
C_SIG_BIT: 4
C_DELTA_BIT: 4

Initialize PREFETCH FILTER
FILTER_SET: 1024

*** ChampSim Multicore Out-of-Order Simulator ***

Warmup Instructions: 50000000
Simulation Instructions: 50000000
Number of CPUs: 1
LLC sets: 2048
LLC ways: 16
Off-chip DRAM Size: 4096 MB Channels: 1 Width: 64-bit Data Rate: 3200 MT/s

CPU 0 runs /home/tongjie/ChampSim-master/ipc1_public/server_036.champsimtrace.xz
CPU 0 L1D next line prefetcher
Heartbeat CPU 0 instructions: 10000000 cycles: 3459107 heartbeat IPC: 2.89092 cumulative IPC: 2.89092 (Simulation time: 0 hr 0 min 26 sec) 
Heartbeat CPU 0 instructions: 20000000 cycles: 6924925 heartbeat IPC: 2.88532 cumulative IPC: 2.88812 (Simulation time: 0 hr 0 min 52 sec) 
Heartbeat CPU 0 instructions: 30000003 cycles: 10433141 heartbeat IPC: 2.85045 cumulative IPC: 2.87545 (Simulation time: 0 hr 1 min 18 sec) 
Heartbeat CPU 0 instructions: 40000000 cycles: 13895657 heartbeat IPC: 2.88807 cumulative IPC: 2.8786 (Simulation time: 0 hr 1 min 44 sec) 
Heartbeat CPU 0 instructions: 50000002 cycles: 17357364 heartbeat IPC: 2.88875 cumulative IPC: 2.88062 (Simulation time: 0 hr 2 min 10 sec) 

Warmup complete CPU 0 instructions: 50000002 cycles: 17357364 (Simulation time: 0 hr 2 min 10 sec) 

Heartbeat CPU 0 instructions: 60000000 cycles: 23331803 heartbeat IPC: 1.6738 cumulative IPC: 1.6738 (Simulation time: 0 hr 2 min 33 sec) 
Heartbeat CPU 0 instructions: 70000001 cycles: 29244583 heartbeat IPC: 1.69125 cumulative IPC: 1.68248 (Simulation time: 0 hr 2 min 56 sec) 
Heartbeat CPU 0 instructions: 80000001 cycles: 35189962 heartbeat IPC: 1.68198 cumulative IPC: 1.68231 (Simulation time: 0 hr 3 min 19 sec) 
Heartbeat CPU 0 instructions: 90000002 cycles: 41105537 heartbeat IPC: 1.69045 cumulative IPC: 1.68434 (Simulation time: 0 hr 3 min 44 sec) 
Heartbeat CPU 0 instructions: 100000001 cycles: 47022342 heartbeat IPC: 1.6901 cumulative IPC: 1.68549 (Simulation time: 0 hr 4 min 8 sec) 
Finished CPU 0 instructions: 50000003 cycles: 29664979 cumulative IPC: 1.68549 (Simulation time: 0 hr 4 min 8 sec) 

ChampSim completed all CPUs

Region of Interest Statistics

CPU 0 cumulative IPC: 1.68549 instructions: 50000003 cycles: 29664979
L1D TOTAL     ACCESS:   21297592  HIT:   21237341  MISS:      60251
L1D LOAD      ACCESS:    7054354  HIT:    7019460  MISS:      34894
L1D RFO       ACCESS:    7364275  HIT:    7357039  MISS:       7236
L1D PREFETCH  ACCESS:    6878963  HIT:    6860842  MISS:      18121
L1D WRITEBACK ACCESS:          0  HIT:          0  MISS:          0
L1D PREFETCH  REQUESTED:   16301128  ISSUED:   15900331  USEFUL:      22993  USELESS:      34431
L1D AVERAGE MISS LATENCY: 17.2407 cycles
L1I TOTAL     ACCESS:   15486671  HIT:   10833404  MISS:    4653267
L1I LOAD      ACCESS:    8877872  HIT:    8500863  MISS:     377009
L1I RFO       ACCESS:          0  HIT:          0  MISS:          0
L1I PREFETCH  ACCESS:    6608799  HIT:    2332541  MISS:    4276258
L1I WRITEBACK ACCESS:          0  HIT:          0  MISS:          0
L1I PREFETCH  REQUESTED:  168468947  ISSUED:   34916124  USEFUL:    6951587  USELESS:    1177035
L1I AVERAGE MISS LATENCY: 14.5348 cycles
L2C TOTAL     ACCESS:    6148292  HIT:    6146134  MISS:       2158
L2C LOAD      ACCESS:     324048  HIT:     323237  MISS:        811
L2C RFO       ACCESS:       7229  HIT:       7175  MISS:         54
L2C PREFETCH  ACCESS:    5801401  HIT:    5800127  MISS:       1274
L2C WRITEBACK ACCESS:      15614  HIT:      15595  MISS:         19
L2C PREFETCH  REQUESTED:    7227825  ISSUED:    7212381  USEFUL:       1821  USELESS:      20815
L2C AVERAGE MISS LATENCY: 100.134 cycles
LLC TOTAL     ACCESS:     604986  HIT:     602231  MISS:       2755
LLC LOAD      ACCESS:        810  HIT:        315  MISS:        495
LLC RFO       ACCESS:         54  HIT:         25  MISS:         29
LLC PREFETCH  ACCESS:     603192  HIT:     600965  MISS:       2227
LLC WRITEBACK ACCESS:        930  HIT:        926  MISS:          4
LLC PREFETCH  REQUESTED:          0  ISSUED:          0  USEFUL:       8965  USELESS:      15226
LLC AVERAGE MISS LATENCY: 188.383 cycles
Major fault: 0 Minor fault: 1926
CPU 0 L1D next line prefetcher final stats

DRAM Statistics
 CHANNEL 0
 RQ ROW_BUFFER_HIT:        397  ROW_BUFFER_MISS:       2354
 DBUS_CONGESTED:       1315
 WQ ROW_BUFFER_HIT:        373  ROW_BUFFER_MISS:       1427  FULL:          0

 AVG_CONGESTED_CYCLE: 6

CPU 0 Branch Prediction Accuracy: 99.8717% MPKI: 0.21174 Average ROB Occupancy at Mispredict: 190.888

Branch types
NOT_BRANCH: 41748427 83.4968%
BRANCH_DIRECT_JUMP: 468563 0.937126%
BRANCH_INDIRECT: 0 0%
BRANCH_CONDITIONAL: 5599753 11.1995%
BRANCH_DIRECT_CALL: 885105 1.77021%
BRANCH_INDIRECT_CALL: 206338 0.412676%
BRANCH_RETURN: 1091466 2.18293%
BRANCH_OTHER: 0 0%

