Initialize SIGNATURE TABLE
ST_SET: 1
ST_WAY: 256
ST_TAG_BIT: 16
ST_TAG_MASK: ffff

Initialize PATTERN TABLE
PT_SET: 512
PT_WAY: 4
SIG_DELTA_BIT: 7
C_SIG_BIT: 4
C_DELTA_BIT: 4

Initialize PREFETCH FILTER
FILTER_SET: 1024

*** ChampSim Multicore Out-of-Order Simulator ***

Warmup Instructions: 50000000
Simulation Instructions: 50000000
Number of CPUs: 1
LLC sets: 2048
LLC ways: 16
Off-chip DRAM Size: 4096 MB Channels: 1 Width: 64-bit Data Rate: 3200 MT/s

CPU 0 runs /home/tongjie/ChampSim-master/ipc1_public/server_018.champsimtrace.xz
CPU 0 L1D next line prefetcher
Heartbeat CPU 0 instructions: 10000003 cycles: 3621444 heartbeat IPC: 2.76133 cumulative IPC: 2.76133 (Simulation time: 0 hr 0 min 27 sec) 
Heartbeat CPU 0 instructions: 20000001 cycles: 7247420 heartbeat IPC: 2.75788 cumulative IPC: 2.7596 (Simulation time: 0 hr 0 min 54 sec) 
Heartbeat CPU 0 instructions: 30000003 cycles: 10725676 heartbeat IPC: 2.875 cumulative IPC: 2.79703 (Simulation time: 0 hr 1 min 18 sec) 
Heartbeat CPU 0 instructions: 40000000 cycles: 14241299 heartbeat IPC: 2.84445 cumulative IPC: 2.80873 (Simulation time: 0 hr 1 min 44 sec) 
Heartbeat CPU 0 instructions: 50000003 cycles: 17863357 heartbeat IPC: 2.76086 cumulative IPC: 2.79903 (Simulation time: 0 hr 2 min 11 sec) 

Warmup complete CPU 0 instructions: 50000003 cycles: 17863357 (Simulation time: 0 hr 2 min 11 sec) 

Heartbeat CPU 0 instructions: 60000000 cycles: 36002581 heartbeat IPC: 0.551291 cumulative IPC: 0.551291 (Simulation time: 0 hr 2 min 46 sec) 
Heartbeat CPU 0 instructions: 70000001 cycles: 54168256 heartbeat IPC: 0.550489 cumulative IPC: 0.55089 (Simulation time: 0 hr 3 min 22 sec) 
Heartbeat CPU 0 instructions: 80000001 cycles: 72235940 heartbeat IPC: 0.553474 cumulative IPC: 0.551749 (Simulation time: 0 hr 3 min 58 sec) 
Heartbeat CPU 0 instructions: 90000002 cycles: 90366540 heartbeat IPC: 0.551554 cumulative IPC: 0.5517 (Simulation time: 0 hr 4 min 33 sec) 
Heartbeat CPU 0 instructions: 100000001 cycles: 108461408 heartbeat IPC: 0.552643 cumulative IPC: 0.551888 (Simulation time: 0 hr 5 min 8 sec) 
Finished CPU 0 instructions: 50000002 cycles: 90598052 cumulative IPC: 0.551888 (Simulation time: 0 hr 5 min 8 sec) 

ChampSim completed all CPUs

Region of Interest Statistics

CPU 0 cumulative IPC: 0.551888 instructions: 50000002 cycles: 90598052
L1D TOTAL     ACCESS:   18840711  HIT:   16622944  MISS:    2217767
L1D LOAD      ACCESS:    7142425  HIT:    6410398  MISS:     732027
L1D RFO       ACCESS:    5831661  HIT:    4879196  MISS:     952465
L1D PREFETCH  ACCESS:    5866625  HIT:    5333350  MISS:     533275
L1D WRITEBACK ACCESS:          0  HIT:          0  MISS:          0
L1D PREFETCH  REQUESTED:   16412063  ISSUED:   16024593  USEFUL:     580913  USELESS:     709319
L1D AVERAGE MISS LATENCY: 173.944 cycles
L1I TOTAL     ACCESS:   13425746  HIT:   10733302  MISS:    2692444
L1I LOAD      ACCESS:   10076553  HIT:    9416401  MISS:     660152
L1I RFO       ACCESS:          0  HIT:          0  MISS:          0
L1I PREFETCH  ACCESS:    3349193  HIT:    1316901  MISS:    2032292
L1I WRITEBACK ACCESS:          0  HIT:          0  MISS:          0
L1I PREFETCH  REQUESTED:   71461873  ISSUED:   17673851  USEFUL:    3235167  USELESS:     527395
L1I AVERAGE MISS LATENCY: 17.3936 cycles
L2C TOTAL     ACCESS:    7389007  HIT:    5530433  MISS:    1858574
L2C LOAD      ACCESS:    1104341  HIT:     806521  MISS:     297820
L2C RFO       ACCESS:     951876  HIT:      20134  MISS:     931742
L2C PREFETCH  ACCESS:    4162724  HIT:    3536173  MISS:     626551
L2C WRITEBACK ACCESS:    1170066  HIT:    1167605  MISS:       2461
L2C PREFETCH  REQUESTED:    9576643  ISSUED:    9334431  USEFUL:      75602  USELESS:    1185225
L2C AVERAGE MISS LATENCY: 212.782 cycles
LLC TOTAL     ACCESS:    4087696  HIT:    2657322  MISS:    1430374
LLC LOAD      ACCESS:     297766  HIT:     197000  MISS:     100766
LLC RFO       ACCESS:     931742  HIT:     137998  MISS:     793744
LLC PREFETCH  ACCESS:    1757472  HIT:    1223568  MISS:     533904
LLC WRITEBACK ACCESS:    1100716  HIT:    1098756  MISS:       1960
LLC PREFETCH  REQUESTED:          0  ISSUED:          0  USEFUL:      89619  USELESS:    1085222
LLC AVERAGE MISS LATENCY: 275.131 cycles
Major fault: 0 Minor fault: 22442
CPU 0 L1D next line prefetcher final stats

DRAM Statistics
 CHANNEL 0
 RQ ROW_BUFFER_HIT:     401674  ROW_BUFFER_MISS:    1026515
 DBUS_CONGESTED:    1416730
 WQ ROW_BUFFER_HIT:     266310  ROW_BUFFER_MISS:     625968  FULL:          0

 AVG_CONGESTED_CYCLE: 6

CPU 0 Branch Prediction Accuracy: 99.7114% MPKI: 0.47678 Average ROB Occupancy at Mispredict: 194.871

Branch types
NOT_BRANCH: 41741008 83.482%
BRANCH_DIRECT_JUMP: 458652 0.917304%
BRANCH_INDIRECT: 48282 0.096564%
BRANCH_CONDITIONAL: 5930881 11.8618%
BRANCH_DIRECT_CALL: 744230 1.48846%
BRANCH_INDIRECT_CALL: 166336 0.332672%
BRANCH_RETURN: 910589 1.82118%
BRANCH_OTHER: 0 0%

