Initialize SIGNATURE TABLE
ST_SET: 1
ST_WAY: 256
ST_TAG_BIT: 16
ST_TAG_MASK: ffff

Initialize PATTERN TABLE
PT_SET: 512
PT_WAY: 4
SIG_DELTA_BIT: 7
C_SIG_BIT: 4
C_DELTA_BIT: 4

Initialize PREFETCH FILTER
FILTER_SET: 1024

*** ChampSim Multicore Out-of-Order Simulator ***

Warmup Instructions: 50000000
Simulation Instructions: 50000000
Number of CPUs: 1
LLC sets: 2048
LLC ways: 16
Off-chip DRAM Size: 4096 MB Channels: 1 Width: 64-bit Data Rate: 3200 MT/s

CPU 0 runs /home/tongjie/ChampSim-master/ipc1_public/server_015.champsimtrace.xz
CPU 0 L1D next line prefetcher
Heartbeat CPU 0 instructions: 10000002 cycles: 3519443 heartbeat IPC: 2.84136 cumulative IPC: 2.84136 (Simulation time: 0 hr 0 min 25 sec) 
Heartbeat CPU 0 instructions: 20000001 cycles: 7107291 heartbeat IPC: 2.78719 cumulative IPC: 2.81401 (Simulation time: 0 hr 0 min 52 sec) 
Heartbeat CPU 0 instructions: 30000001 cycles: 10646256 heartbeat IPC: 2.82569 cumulative IPC: 2.81789 (Simulation time: 0 hr 1 min 16 sec) 
Heartbeat CPU 0 instructions: 40000002 cycles: 14194297 heartbeat IPC: 2.81846 cumulative IPC: 2.81803 (Simulation time: 0 hr 1 min 41 sec) 
Heartbeat CPU 0 instructions: 50000002 cycles: 17742557 heartbeat IPC: 2.81828 cumulative IPC: 2.81808 (Simulation time: 0 hr 2 min 7 sec) 

Warmup complete CPU 0 instructions: 50000002 cycles: 17742557 (Simulation time: 0 hr 2 min 7 sec) 

Heartbeat CPU 0 instructions: 60000002 cycles: 24087902 heartbeat IPC: 1.57596 cumulative IPC: 1.57596 (Simulation time: 0 hr 2 min 33 sec) 
Heartbeat CPU 0 instructions: 70000003 cycles: 30430347 heartbeat IPC: 1.57668 cumulative IPC: 1.57632 (Simulation time: 0 hr 2 min 59 sec) 
Heartbeat CPU 0 instructions: 80000000 cycles: 36768734 heartbeat IPC: 1.57769 cumulative IPC: 1.57677 (Simulation time: 0 hr 3 min 25 sec) 
Heartbeat CPU 0 instructions: 90000000 cycles: 43115178 heartbeat IPC: 1.57569 cumulative IPC: 1.5765 (Simulation time: 0 hr 3 min 49 sec) 
Heartbeat CPU 0 instructions: 100000002 cycles: 49462014 heartbeat IPC: 1.57559 cumulative IPC: 1.57632 (Simulation time: 0 hr 4 min 12 sec) 
Finished CPU 0 instructions: 50000000 cycles: 31719457 cumulative IPC: 1.57632 (Simulation time: 0 hr 4 min 12 sec) 

ChampSim completed all CPUs

Region of Interest Statistics

CPU 0 cumulative IPC: 1.57632 instructions: 50000000 cycles: 31719457
L1D TOTAL     ACCESS:   21944480  HIT:   21927570  MISS:      16910
L1D LOAD      ACCESS:    6747069  HIT:    6746539  MISS:        530
L1D RFO       ACCESS:    8562782  HIT:    8562686  MISS:         96
L1D PREFETCH  ACCESS:    6634629  HIT:    6618345  MISS:      16284
L1D WRITEBACK ACCESS:          0  HIT:          0  MISS:          0
L1D PREFETCH  REQUESTED:   15833889  ISSUED:   15581661  USEFUL:      13537  USELESS:      24158
L1D AVERAGE MISS LATENCY: 16.5085 cycles
L1I TOTAL     ACCESS:   14964229  HIT:   12414218  MISS:    2550011
L1I LOAD      ACCESS:    9577204  HIT:    9340579  MISS:     236625
L1I RFO       ACCESS:          0  HIT:          0  MISS:          0
L1I PREFETCH  ACCESS:    5387025  HIT:    3073639  MISS:    2313386
L1I WRITEBACK ACCESS:          0  HIT:          0  MISS:          0
L1I PREFETCH  REQUESTED:   95181729  ISSUED:   26540289  USEFUL:    3777905  USELESS:     717302
L1I AVERAGE MISS LATENCY: 14.4154 cycles
L2C TOTAL     ACCESS:    3338161  HIT:    3337794  MISS:        367
L2C LOAD      ACCESS:     185056  HIT:     184960  MISS:         96
L2C RFO       ACCESS:         95  HIT:         93  MISS:          2
L2C PREFETCH  ACCESS:    3152660  HIT:    3152391  MISS:        269
L2C WRITEBACK ACCESS:        350  HIT:        350  MISS:          0
L2C PREFETCH  REQUESTED:    3385780  ISSUED:    3365393  USEFUL:       1189  USELESS:      20247
L2C AVERAGE MISS LATENCY: 73.5695 cycles
LLC TOTAL     ACCESS:     422804  HIT:     422072  MISS:        732
LLC LOAD      ACCESS:         96  HIT:         80  MISS:         16
LLC RFO       ACCESS:          2  HIT:          0  MISS:          2
LLC PREFETCH  ACCESS:     422596  HIT:     421884  MISS:        712
LLC WRITEBACK ACCESS:        110  HIT:        108  MISS:          2
LLC PREFETCH  REQUESTED:          0  ISSUED:          0  USEFUL:       7036  USELESS:      13370
LLC AVERAGE MISS LATENCY: 202.829 cycles
Major fault: 0 Minor fault: 1888
CPU 0 L1D next line prefetcher final stats

DRAM Statistics
 CHANNEL 0
 RQ ROW_BUFFER_HIT:         81  ROW_BUFFER_MISS:        649
 DBUS_CONGESTED:        320
 WQ ROW_BUFFER_HIT:         49  ROW_BUFFER_MISS:        440  FULL:          0

 AVG_CONGESTED_CYCLE: 6

CPU 0 Branch Prediction Accuracy: 99.9085% MPKI: 0.15428 Average ROB Occupancy at Mispredict: 275.858

Branch types
NOT_BRANCH: 41573055 83.1461%
BRANCH_DIRECT_JUMP: 436254 0.872508%
BRANCH_INDIRECT: 0 0%
BRANCH_CONDITIONAL: 5395888 10.7918%
BRANCH_DIRECT_CALL: 1173388 2.34678%
BRANCH_INDIRECT_CALL: 123910 0.24782%
BRANCH_RETURN: 1297310 2.59462%
BRANCH_OTHER: 0 0%

