Initialize SIGNATURE TABLE
ST_SET: 1
ST_WAY: 256
ST_TAG_BIT: 16
ST_TAG_MASK: ffff

Initialize PATTERN TABLE
PT_SET: 512
PT_WAY: 4
SIG_DELTA_BIT: 7
C_SIG_BIT: 4
C_DELTA_BIT: 4

Initialize PREFETCH FILTER
FILTER_SET: 1024

*** ChampSim Multicore Out-of-Order Simulator ***

Warmup Instructions: 50000000
Simulation Instructions: 50000000
Number of CPUs: 1
LLC sets: 2048
LLC ways: 16
Off-chip DRAM Size: 4096 MB Channels: 1 Width: 64-bit Data Rate: 3200 MT/s

CPU 0 runs /home/tongjie/ChampSim-master/ipc1_public/server_011.champsimtrace.xz
CPU 0 L1D next line prefetcher
Heartbeat CPU 0 instructions: 10000002 cycles: 3210517 heartbeat IPC: 3.11476 cumulative IPC: 3.11476 (Simulation time: 0 hr 0 min 25 sec) 
Heartbeat CPU 0 instructions: 20000001 cycles: 6426036 heartbeat IPC: 3.10992 cumulative IPC: 3.11234 (Simulation time: 0 hr 0 min 50 sec) 
Heartbeat CPU 0 instructions: 30000001 cycles: 9685752 heartbeat IPC: 3.06775 cumulative IPC: 3.09733 (Simulation time: 0 hr 1 min 16 sec) 
Heartbeat CPU 0 instructions: 40000003 cycles: 12893444 heartbeat IPC: 3.11751 cumulative IPC: 3.10235 (Simulation time: 0 hr 1 min 43 sec) 
Heartbeat CPU 0 instructions: 50000000 cycles: 16107656 heartbeat IPC: 3.11118 cumulative IPC: 3.10411 (Simulation time: 0 hr 2 min 8 sec) 

Warmup complete CPU 0 instructions: 50000004 cycles: 16107657 (Simulation time: 0 hr 2 min 8 sec) 

Heartbeat CPU 0 instructions: 60000002 cycles: 25617832 heartbeat IPC: 1.05151 cumulative IPC: 1.05151 (Simulation time: 0 hr 2 min 34 sec) 
Heartbeat CPU 0 instructions: 70000001 cycles: 35591793 heartbeat IPC: 1.00261 cumulative IPC: 1.02648 (Simulation time: 0 hr 2 min 59 sec) 
Heartbeat CPU 0 instructions: 80000003 cycles: 45394778 heartbeat IPC: 1.0201 cumulative IPC: 1.02434 (Simulation time: 0 hr 3 min 19 sec) 
Heartbeat CPU 0 instructions: 90000001 cycles: 55103412 heartbeat IPC: 1.03001 cumulative IPC: 1.02575 (Simulation time: 0 hr 3 min 43 sec) 
Heartbeat CPU 0 instructions: 100000000 cycles: 64611421 heartbeat IPC: 1.05174 cumulative IPC: 1.03085 (Simulation time: 0 hr 4 min 7 sec) 
Finished CPU 0 instructions: 50000003 cycles: 48503776 cumulative IPC: 1.03085 (Simulation time: 0 hr 4 min 7 sec) 

ChampSim completed all CPUs

Region of Interest Statistics

CPU 0 cumulative IPC: 1.03085 instructions: 50000003 cycles: 48503776
L1D TOTAL     ACCESS:   18823178  HIT:   17790691  MISS:    1032487
L1D LOAD      ACCESS:    7100018  HIT:    6623214  MISS:     476804
L1D RFO       ACCESS:    4854743  HIT:    4772644  MISS:      82099
L1D PREFETCH  ACCESS:    6868417  HIT:    6394833  MISS:     473584
L1D WRITEBACK ACCESS:          0  HIT:          0  MISS:          0
L1D PREFETCH  REQUESTED:   15964428  ISSUED:   15721633  USEFUL:     290937  USELESS:     681640
L1D AVERAGE MISS LATENCY: 39.2812 cycles
L1I TOTAL     ACCESS:   10457299  HIT:    8599807  MISS:    1857492
L1I LOAD      ACCESS:    8822448  HIT:    8101851  MISS:     720597
L1I RFO       ACCESS:          0  HIT:          0  MISS:          0
L1I PREFETCH  ACCESS:    1634851  HIT:     497956  MISS:    1136895
L1I WRITEBACK ACCESS:          0  HIT:          0  MISS:          0
L1I PREFETCH  REQUESTED:   43246917  ISSUED:   10572829  USEFUL:    1217526  USELESS:    1101294
L1I AVERAGE MISS LATENCY: 27.7443 cycles
L2C TOTAL     ACCESS:    3976710  HIT:    2893224  MISS:    1083486
L2C LOAD      ACCESS:    1151112  HIT:     599229  MISS:     551883
L2C RFO       ACCESS:      80241  HIT:      34698  MISS:      45543
L2C PREFETCH  ACCESS:    2477161  HIT:    1992320  MISS:     484841
L2C WRITEBACK ACCESS:     268196  HIT:     266977  MISS:       1219
L2C PREFETCH  REQUESTED:    7510006  ISSUED:    6951364  USEFUL:     106299  USELESS:     972420
L2C AVERAGE MISS LATENCY: 45.7093 cycles
LLC TOTAL     ACCESS:    2461625  HIT:    2284461  MISS:     177164
LLC LOAD      ACCESS:     544221  HIT:     503818  MISS:      40403
LLC RFO       ACCESS:      45538  HIT:      32312  MISS:      13226
LLC PREFETCH  ACCESS:    1721823  HIT:    1598613  MISS:     123210
LLC WRITEBACK ACCESS:     150043  HIT:     149718  MISS:        325
LLC PREFETCH  REQUESTED:          0  ISSUED:          0  USEFUL:      55421  USELESS:     190311
LLC AVERAGE MISS LATENCY: 165.489 cycles
Major fault: 0 Minor fault: 6971
CPU 0 L1D next line prefetcher final stats

DRAM Statistics
 CHANNEL 0
 RQ ROW_BUFFER_HIT:      33553  ROW_BUFFER_MISS:     143278
 DBUS_CONGESTED:      72521
 WQ ROW_BUFFER_HIT:      12079  ROW_BUFFER_MISS:      49546  FULL:          0

 AVG_CONGESTED_CYCLE: 5

CPU 0 Branch Prediction Accuracy: 97.5565% MPKI: 4.59006 Average ROB Occupancy at Mispredict: 47.2858

Branch types
NOT_BRANCH: 40607199 81.2144%
BRANCH_DIRECT_JUMP: 451601 0.903202%
BRANCH_INDIRECT: 151580 0.30316%
BRANCH_CONDITIONAL: 7041635 14.0833%
BRANCH_DIRECT_CALL: 647827 1.29565%
BRANCH_INDIRECT_CALL: 211373 0.422746%
BRANCH_RETURN: 888439 1.77688%
BRANCH_OTHER: 0 0%

