Initialize SIGNATURE TABLE
ST_SET: 1
ST_WAY: 256
ST_TAG_BIT: 16
ST_TAG_MASK: ffff

Initialize PATTERN TABLE
PT_SET: 512
PT_WAY: 4
SIG_DELTA_BIT: 7
C_SIG_BIT: 4
C_DELTA_BIT: 4

Initialize PREFETCH FILTER
FILTER_SET: 1024

*** ChampSim Multicore Out-of-Order Simulator ***

Warmup Instructions: 50000000
Simulation Instructions: 50000000
Number of CPUs: 1
LLC sets: 2048
LLC ways: 16
Off-chip DRAM Size: 4096 MB Channels: 1 Width: 64-bit Data Rate: 3200 MT/s

CPU 0 runs /home/tongjie/ChampSim-master/ipc1_public/server_034.champsimtrace.xz
CPU 0 L1D next line prefetcher
Heartbeat CPU 0 instructions: 10000000 cycles: 3330617 heartbeat IPC: 3.00245 cumulative IPC: 3.00245 (Simulation time: 0 hr 0 min 25 sec) 
Heartbeat CPU 0 instructions: 20000002 cycles: 6654134 heartbeat IPC: 3.00886 cumulative IPC: 3.00565 (Simulation time: 0 hr 0 min 50 sec) 
Heartbeat CPU 0 instructions: 30000003 cycles: 9986013 heartbeat IPC: 3.00131 cumulative IPC: 3.0042 (Simulation time: 0 hr 1 min 15 sec) 
Heartbeat CPU 0 instructions: 40000001 cycles: 13315657 heartbeat IPC: 3.00332 cumulative IPC: 3.00398 (Simulation time: 0 hr 1 min 40 sec) 
Heartbeat CPU 0 instructions: 50000000 cycles: 16644749 heartbeat IPC: 3.00382 cumulative IPC: 3.00395 (Simulation time: 0 hr 2 min 5 sec) 

Warmup complete CPU 0 instructions: 50000002 cycles: 16644750 (Simulation time: 0 hr 2 min 5 sec) 

Heartbeat CPU 0 instructions: 60000002 cycles: 22685724 heartbeat IPC: 1.65536 cumulative IPC: 1.65536 (Simulation time: 0 hr 2 min 31 sec) 
Heartbeat CPU 0 instructions: 70000003 cycles: 29107414 heartbeat IPC: 1.55722 cumulative IPC: 1.60479 (Simulation time: 0 hr 2 min 57 sec) 
Heartbeat CPU 0 instructions: 80000002 cycles: 35215960 heartbeat IPC: 1.63705 cumulative IPC: 1.6154 (Simulation time: 0 hr 3 min 23 sec) 
Heartbeat CPU 0 instructions: 90000002 cycles: 41319365 heartbeat IPC: 1.63843 cumulative IPC: 1.6211 (Simulation time: 0 hr 3 min 50 sec) 
Heartbeat CPU 0 instructions: 100000002 cycles: 47420312 heartbeat IPC: 1.63909 cumulative IPC: 1.62467 (Simulation time: 0 hr 4 min 16 sec) 
Finished CPU 0 instructions: 50000000 cycles: 30775562 cumulative IPC: 1.62467 (Simulation time: 0 hr 4 min 16 sec) 

ChampSim completed all CPUs

Region of Interest Statistics

CPU 0 cumulative IPC: 1.62467 instructions: 50000000 cycles: 30775562
L1D TOTAL     ACCESS:   18338260  HIT:   16914180  MISS:    1424080
L1D LOAD      ACCESS:    6176986  HIT:    5521455  MISS:     655531
L1D RFO       ACCESS:    6164450  HIT:    6021550  MISS:     142900
L1D PREFETCH  ACCESS:    5996824  HIT:    5371175  MISS:     625649
L1D WRITEBACK ACCESS:          0  HIT:          0  MISS:          0
L1D PREFETCH  REQUESTED:   14818299  ISSUED:   14578769  USEFUL:     288926  USELESS:     967018
L1D AVERAGE MISS LATENCY: 17.8768 cycles
L1I TOTAL     ACCESS:   13716063  HIT:   10174862  MISS:    3541201
L1I LOAD      ACCESS:    9561500  HIT:    9317353  MISS:     244147
L1I RFO       ACCESS:          0  HIT:          0  MISS:          0
L1I PREFETCH  ACCESS:    4154563  HIT:     857509  MISS:    3297054
L1I WRITEBACK ACCESS:          0  HIT:          0  MISS:          0
L1I PREFETCH  REQUESTED:  105024648  ISSUED:   23998555  USEFUL:    6122739  USELESS:     479453
L1I AVERAGE MISS LATENCY: 15.2942 cycles
L2C TOTAL     ACCESS:    6701076  HIT:    6552562  MISS:     148514
L2C LOAD      ACCESS:     820448  HIT:     771298  MISS:      49150
L2C RFO       ACCESS:     141098  HIT:     132731  MISS:       8367
L2C PREFETCH  ACCESS:    5388791  HIT:    5298638  MISS:      90153
L2C WRITEBACK ACCESS:     350739  HIT:     349895  MISS:        844
L2C PREFETCH  REQUESTED:    9951034  ISSUED:    9809921  USEFUL:      12566  USELESS:     163359
L2C AVERAGE MISS LATENCY: 39.0701 cycles
LLC TOTAL     ACCESS:    1436155  HIT:    1422830  MISS:      13325
LLC LOAD      ACCESS:      49075  HIT:      46173  MISS:       2902
LLC RFO       ACCESS:       8367  HIT:       8063  MISS:        304
LLC PREFETCH  ACCESS:    1337579  HIT:    1327519  MISS:      10060
LLC WRITEBACK ACCESS:      41134  HIT:      41075  MISS:         59
LLC PREFETCH  REQUESTED:          0  ISSUED:          0  USEFUL:       8144  USELESS:       4997
LLC AVERAGE MISS LATENCY: 154.919 cycles
Major fault: 0 Minor fault: 1170
CPU 0 L1D next line prefetcher final stats

DRAM Statistics
 CHANNEL 0
 RQ ROW_BUFFER_HIT:       3644  ROW_BUFFER_MISS:       9618
 DBUS_CONGESTED:       6056
 WQ ROW_BUFFER_HIT:       1167  ROW_BUFFER_MISS:       2874  FULL:          0

 AVG_CONGESTED_CYCLE: 5

CPU 0 Branch Prediction Accuracy: 99.926% MPKI: 0.14472 Average ROB Occupancy at Mispredict: 242.019

Branch types
NOT_BRANCH: 40221013 80.442%
BRANCH_DIRECT_JUMP: 771319 1.54264%
BRANCH_INDIRECT: 108663 0.217326%
BRANCH_CONDITIONAL: 6375035 12.7501%
BRANCH_DIRECT_CALL: 1049635 2.09927%
BRANCH_INDIRECT_CALL: 212283 0.424566%
BRANCH_RETURN: 1261925 2.52385%
BRANCH_OTHER: 0 0%

