Initialize SIGNATURE TABLE
ST_SET: 1
ST_WAY: 256
ST_TAG_BIT: 16
ST_TAG_MASK: ffff

Initialize PATTERN TABLE
PT_SET: 512
PT_WAY: 4
SIG_DELTA_BIT: 7
C_SIG_BIT: 4
C_DELTA_BIT: 4

Initialize PREFETCH FILTER
FILTER_SET: 1024

*** ChampSim Multicore Out-of-Order Simulator ***

Warmup Instructions: 50000000
Simulation Instructions: 50000000
Number of CPUs: 1
LLC sets: 2048
LLC ways: 16
Off-chip DRAM Size: 4096 MB Channels: 1 Width: 64-bit Data Rate: 3200 MT/s

CPU 0 runs /home/tongjie/ChampSim-master/ipc1_public/server_013.champsimtrace.xz
CPU 0 L1D next line prefetcher
Heartbeat CPU 0 instructions: 10000000 cycles: 3217181 heartbeat IPC: 3.10831 cumulative IPC: 3.10831 (Simulation time: 0 hr 0 min 26 sec) 
Heartbeat CPU 0 instructions: 20000001 cycles: 6424259 heartbeat IPC: 3.1181 cumulative IPC: 3.1132 (Simulation time: 0 hr 0 min 52 sec) 
Heartbeat CPU 0 instructions: 30000002 cycles: 9635749 heartbeat IPC: 3.11382 cumulative IPC: 3.11341 (Simulation time: 0 hr 1 min 17 sec) 
Heartbeat CPU 0 instructions: 40000002 cycles: 12841757 heartbeat IPC: 3.11914 cumulative IPC: 3.11484 (Simulation time: 0 hr 1 min 41 sec) 
Heartbeat CPU 0 instructions: 50000000 cycles: 16048308 heartbeat IPC: 3.11861 cumulative IPC: 3.11559 (Simulation time: 0 hr 2 min 7 sec) 

Warmup complete CPU 0 instructions: 50000004 cycles: 16048309 (Simulation time: 0 hr 2 min 7 sec) 

Heartbeat CPU 0 instructions: 60000000 cycles: 25811537 heartbeat IPC: 1.02425 cumulative IPC: 1.02425 (Simulation time: 0 hr 2 min 33 sec) 
Heartbeat CPU 0 instructions: 70000000 cycles: 35637393 heartbeat IPC: 1.01772 cumulative IPC: 1.02098 (Simulation time: 0 hr 2 min 59 sec) 
Heartbeat CPU 0 instructions: 80000003 cycles: 44974608 heartbeat IPC: 1.07098 cumulative IPC: 1.03712 (Simulation time: 0 hr 3 min 23 sec) 
Heartbeat CPU 0 instructions: 90000003 cycles: 54518821 heartbeat IPC: 1.04776 cumulative IPC: 1.03976 (Simulation time: 0 hr 3 min 47 sec) 
Heartbeat CPU 0 instructions: 100000003 cycles: 64056459 heartbeat IPC: 1.04848 cumulative IPC: 1.04149 (Simulation time: 0 hr 4 min 9 sec) 
Finished CPU 0 instructions: 50000003 cycles: 48008151 cumulative IPC: 1.04149 (Simulation time: 0 hr 4 min 9 sec) 

ChampSim completed all CPUs

Region of Interest Statistics

CPU 0 cumulative IPC: 1.04149 instructions: 50000003 cycles: 48008151
L1D TOTAL     ACCESS:   18024045  HIT:   16957083  MISS:    1066962
L1D LOAD      ACCESS:    6653433  HIT:    6157724  MISS:     495709
L1D RFO       ACCESS:    4951494  HIT:    4871259  MISS:      80235
L1D PREFETCH  ACCESS:    6419118  HIT:    5928100  MISS:     491018
L1D WRITEBACK ACCESS:          0  HIT:          0  MISS:          0
L1D PREFETCH  REQUESTED:   15405544  ISSUED:   15166372  USEFUL:     287398  USELESS:     702522
L1D AVERAGE MISS LATENCY: 41.0488 cycles
L1I TOTAL     ACCESS:   10426058  HIT:    8453615  MISS:    1972443
L1I LOAD      ACCESS:    8613240  HIT:    7888352  MISS:     724888
L1I RFO       ACCESS:          0  HIT:          0  MISS:          0
L1I PREFETCH  ACCESS:    1812818  HIT:     565263  MISS:    1247555
L1I WRITEBACK ACCESS:          0  HIT:          0  MISS:          0
L1I PREFETCH  REQUESTED:   43271412  ISSUED:   10696846  USEFUL:    1391728  USELESS:     997415
L1I AVERAGE MISS LATENCY: 28.8317 cycles
L2C TOTAL     ACCESS:    4070799  HIT:    2733714  MISS:    1337085
L2C LOAD      ACCESS:    1166064  HIT:     488540  MISS:     677524
L2C RFO       ACCESS:      78866  HIT:      30733  MISS:      48133
L2C PREFETCH  ACCESS:    2550003  HIT:    1940329  MISS:     609674
L2C WRITEBACK ACCESS:     275866  HIT:     274112  MISS:       1754
L2C PREFETCH  REQUESTED:    7470148  ISSUED:    7014660  USEFUL:     112099  USELESS:    1104752
L2C AVERAGE MISS LATENCY: 42.3534 cycles
LLC TOTAL     ACCESS:    2879687  HIT:    2711364  MISS:     168323
LLC LOAD      ACCESS:     668252  HIT:     631825  MISS:      36427
LLC RFO       ACCESS:      48123  HIT:      38129  MISS:       9994
LLC PREFETCH  ACCESS:    1990593  HIT:    1869007  MISS:     121586
LLC WRITEBACK ACCESS:     172719  HIT:     172403  MISS:        316
LLC PREFETCH  REQUESTED:          0  ISSUED:          0  USEFUL:      47332  USELESS:     186660
LLC AVERAGE MISS LATENCY: 164.733 cycles
Major fault: 0 Minor fault: 6200
CPU 0 L1D next line prefetcher final stats

DRAM Statistics
 CHANNEL 0
 RQ ROW_BUFFER_HIT:      26738  ROW_BUFFER_MISS:     141263
 DBUS_CONGESTED:      68499
 WQ ROW_BUFFER_HIT:      11362  ROW_BUFFER_MISS:      52449  FULL:          0

 AVG_CONGESTED_CYCLE: 5

CPU 0 Branch Prediction Accuracy: 99.4114% MPKI: 1.0933 Average ROB Occupancy at Mispredict: 89.4383

Branch types
NOT_BRANCH: 40713186 81.4264%
BRANCH_DIRECT_JUMP: 463700 0.9274%
BRANCH_INDIRECT: 146543 0.293086%
BRANCH_CONDITIONAL: 6981944 13.9639%
BRANCH_DIRECT_CALL: 665005 1.33001%
BRANCH_INDIRECT_CALL: 165150 0.3303%
BRANCH_RETURN: 864311 1.72862%
BRANCH_OTHER: 0 0%

