Initialize SIGNATURE TABLE
ST_SET: 1
ST_WAY: 256
ST_TAG_BIT: 16
ST_TAG_MASK: ffff

Initialize PATTERN TABLE
PT_SET: 512
PT_WAY: 4
SIG_DELTA_BIT: 7
C_SIG_BIT: 4
C_DELTA_BIT: 4

Initialize PREFETCH FILTER
FILTER_SET: 1024

*** ChampSim Multicore Out-of-Order Simulator ***

Warmup Instructions: 50000000
Simulation Instructions: 50000000
Number of CPUs: 1
LLC sets: 2048
LLC ways: 16
Off-chip DRAM Size: 4096 MB Channels: 1 Width: 64-bit Data Rate: 3200 MT/s

CPU 0 runs /home/tongjie/ChampSim-master/ipc1_public/server_009.champsimtrace.xz
CPU 0 L1D next line prefetcher
Heartbeat CPU 0 instructions: 10000003 cycles: 3203698 heartbeat IPC: 3.12139 cumulative IPC: 3.12139 (Simulation time: 0 hr 0 min 25 sec) 
Heartbeat CPU 0 instructions: 20000001 cycles: 6400176 heartbeat IPC: 3.12844 cumulative IPC: 3.12491 (Simulation time: 0 hr 0 min 49 sec) 
Heartbeat CPU 0 instructions: 30000002 cycles: 9611348 heartbeat IPC: 3.11413 cumulative IPC: 3.12131 (Simulation time: 0 hr 1 min 15 sec) 
Heartbeat CPU 0 instructions: 40000003 cycles: 12818690 heartbeat IPC: 3.11785 cumulative IPC: 3.12044 (Simulation time: 0 hr 1 min 42 sec) 
Heartbeat CPU 0 instructions: 50000000 cycles: 16082621 heartbeat IPC: 3.06379 cumulative IPC: 3.10895 (Simulation time: 0 hr 2 min 7 sec) 

Warmup complete CPU 0 instructions: 50000004 cycles: 16082622 (Simulation time: 0 hr 2 min 7 sec) 

Heartbeat CPU 0 instructions: 60000002 cycles: 33129040 heartbeat IPC: 0.586634 cumulative IPC: 0.586633 (Simulation time: 0 hr 2 min 40 sec) 
Heartbeat CPU 0 instructions: 70000003 cycles: 54727831 heartbeat IPC: 0.462989 cumulative IPC: 0.517529 (Simulation time: 0 hr 3 min 16 sec) 
Heartbeat CPU 0 instructions: 80000000 cycles: 64015521 heartbeat IPC: 1.07669 cumulative IPC: 0.625875 (Simulation time: 0 hr 3 min 40 sec) 
Heartbeat CPU 0 instructions: 90000001 cycles: 73462365 heartbeat IPC: 1.05855 cumulative IPC: 0.69711 (Simulation time: 0 hr 4 min 4 sec) 
Heartbeat CPU 0 instructions: 100000000 cycles: 82726426 heartbeat IPC: 1.07944 cumulative IPC: 0.750257 (Simulation time: 0 hr 4 min 24 sec) 
Finished CPU 0 instructions: 50000000 cycles: 66643805 cumulative IPC: 0.750257 (Simulation time: 0 hr 4 min 24 sec) 

ChampSim completed all CPUs

Region of Interest Statistics

CPU 0 cumulative IPC: 0.750257 instructions: 50000000 cycles: 66643805
L1D TOTAL     ACCESS:   22191184  HIT:   17611218  MISS:    4579966
L1D LOAD      ACCESS:    8900858  HIT:    6625324  MISS:    2275534
L1D RFO       ACCESS:    4598621  HIT:    4493825  MISS:     104796
L1D PREFETCH  ACCESS:    8691705  HIT:    6492069  MISS:    2199636
L1D WRITEBACK ACCESS:          0  HIT:          0  MISS:          0
L1D PREFETCH  REQUESTED:   17717964  ISSUED:   17464112  USEFUL:     256147  USELESS:    2431971
L1D AVERAGE MISS LATENCY: 20.0357 cycles
L1I TOTAL     ACCESS:   12188881  HIT:   10619395  MISS:    1569486
L1I LOAD      ACCESS:   10696156  HIT:   10115668  MISS:     580488
L1I RFO       ACCESS:          0  HIT:          0  MISS:          0
L1I PREFETCH  ACCESS:    1492725  HIT:     503727  MISS:     988998
L1I WRITEBACK ACCESS:          0  HIT:          0  MISS:          0
L1I PREFETCH  REQUESTED:   42648198  ISSUED:    9491198  USEFUL:    1166861  USELESS:     935000
L1I AVERAGE MISS LATENCY: 27.1588 cycles
L2C TOTAL     ACCESS:    7999622  HIT:    7021970  MISS:     977652
L2C LOAD      ACCESS:    2818756  HIT:    2296239  MISS:     522517
L2C RFO       ACCESS:     103791  HIT:      64348  MISS:      39443
L2C PREFETCH  ACCESS:    4820212  HIT:    4405547  MISS:     414665
L2C WRITEBACK ACCESS:     256863  HIT:     255836  MISS:       1027
L2C PREFETCH  REQUESTED:   11036065  ISSUED:   10562266  USEFUL:     105870  USELESS:     823833
L2C AVERAGE MISS LATENCY: 42.3275 cycles
LLC TOTAL     ACCESS:    2642942  HIT:    2512754  MISS:     130188
LLC LOAD      ACCESS:     512383  HIT:     484530  MISS:      27853
LLC RFO       ACCESS:      39436  HIT:      30830  MISS:       8606
LLC PREFETCH  ACCESS:    1955610  HIT:    1862147  MISS:      93463
LLC WRITEBACK ACCESS:     135513  HIT:     135247  MISS:        266
LLC PREFETCH  REQUESTED:          0  ISSUED:          0  USEFUL:      39989  USELESS:     153448
LLC AVERAGE MISS LATENCY: 163.775 cycles
Major fault: 0 Minor fault: 6351
CPU 0 L1D next line prefetcher final stats

DRAM Statistics
 CHANNEL 0
 RQ ROW_BUFFER_HIT:      25657  ROW_BUFFER_MISS:     104262
 DBUS_CONGESTED:      53736
 WQ ROW_BUFFER_HIT:       8118  ROW_BUFFER_MISS:      38561  FULL:          0

 AVG_CONGESTED_CYCLE: 5

CPU 0 Branch Prediction Accuracy: 99.4713% MPKI: 1.11484 Average ROB Occupancy at Mispredict: 90.9461

Branch types
NOT_BRANCH: 39456620 78.9132%
BRANCH_DIRECT_JUMP: 445350 0.8907%
BRANCH_INDIRECT: 131149 0.262298%
BRANCH_CONDITIONAL: 8130198 16.2604%
BRANCH_DIRECT_CALL: 732485 1.46497%
BRANCH_INDIRECT_CALL: 172369 0.344738%
BRANCH_RETURN: 931558 1.86312%
BRANCH_OTHER: 0 0%

