Initialize SIGNATURE TABLE
ST_SET: 1
ST_WAY: 256
ST_TAG_BIT: 16
ST_TAG_MASK: ffff

Initialize PATTERN TABLE
PT_SET: 512
PT_WAY: 4
SIG_DELTA_BIT: 7
C_SIG_BIT: 4
C_DELTA_BIT: 4

Initialize PREFETCH FILTER
FILTER_SET: 1024

*** ChampSim Multicore Out-of-Order Simulator ***

Warmup Instructions: 50000000
Simulation Instructions: 50000000
Number of CPUs: 1
LLC sets: 2048
LLC ways: 16
Off-chip DRAM Size: 4096 MB Channels: 1 Width: 64-bit Data Rate: 3200 MT/s

CPU 0 runs /home/tongjie/ChampSim-master/ipc1_public/server_030.champsimtrace.xz
CPU 0 L1D next line prefetcher
Heartbeat CPU 0 instructions: 10000003 cycles: 3511381 heartbeat IPC: 2.84788 cumulative IPC: 2.84788 (Simulation time: 0 hr 0 min 26 sec) 
Heartbeat CPU 0 instructions: 20000003 cycles: 7023313 heartbeat IPC: 2.84744 cumulative IPC: 2.84766 (Simulation time: 0 hr 0 min 52 sec) 
Heartbeat CPU 0 instructions: 30000000 cycles: 10533825 heartbeat IPC: 2.84859 cumulative IPC: 2.84797 (Simulation time: 0 hr 1 min 18 sec) 
Heartbeat CPU 0 instructions: 40000002 cycles: 14044581 heartbeat IPC: 2.84839 cumulative IPC: 2.84807 (Simulation time: 0 hr 1 min 43 sec) 
Heartbeat CPU 0 instructions: 50000002 cycles: 17558728 heartbeat IPC: 2.84564 cumulative IPC: 2.84759 (Simulation time: 0 hr 2 min 9 sec) 

Warmup complete CPU 0 instructions: 50000002 cycles: 17558728 (Simulation time: 0 hr 2 min 9 sec) 

Heartbeat CPU 0 instructions: 60000002 cycles: 24786485 heartbeat IPC: 1.38356 cumulative IPC: 1.38356 (Simulation time: 0 hr 2 min 36 sec) 
Heartbeat CPU 0 instructions: 70000000 cycles: 32114868 heartbeat IPC: 1.36456 cumulative IPC: 1.37399 (Simulation time: 0 hr 3 min 2 sec) 
Heartbeat CPU 0 instructions: 80000001 cycles: 39312284 heartbeat IPC: 1.38939 cumulative IPC: 1.37908 (Simulation time: 0 hr 3 min 29 sec) 
*** Reached end of trace for Core: 0 Repeating trace: /home/tongjie/ChampSim-master/ipc1_public/server_030.champsimtrace.xz
Heartbeat CPU 0 instructions: 90000002 cycles: 46601552 heartbeat IPC: 1.37188 cumulative IPC: 1.37728 (Simulation time: 0 hr 3 min 56 sec) 
Heartbeat CPU 0 instructions: 100000002 cycles: 53748517 heartbeat IPC: 1.3992 cumulative IPC: 1.38161 (Simulation time: 0 hr 4 min 22 sec) 
Finished CPU 0 instructions: 50000000 cycles: 36189789 cumulative IPC: 1.38161 (Simulation time: 0 hr 4 min 22 sec) 

ChampSim completed all CPUs

Region of Interest Statistics

CPU 0 cumulative IPC: 1.38161 instructions: 50000000 cycles: 36189789
L1D TOTAL     ACCESS:   19381016  HIT:   17304855  MISS:    2076161
L1D LOAD      ACCESS:    6871838  HIT:    5819269  MISS:    1052569
L1D RFO       ACCESS:    6181052  HIT:    5895566  MISS:     285486
L1D PREFETCH  ACCESS:    6328126  HIT:    5590020  MISS:     738106
L1D WRITEBACK ACCESS:          0  HIT:          0  MISS:          0
L1D PREFETCH  REQUESTED:   16128318  ISSUED:   15815360  USEFUL:     414901  USELESS:    1117741
L1D AVERAGE MISS LATENCY: 18.26 cycles
L1I TOTAL     ACCESS:   14127478  HIT:   10595406  MISS:    3532072
L1I LOAD      ACCESS:    9703462  HIT:    9381007  MISS:     322455
L1I RFO       ACCESS:          0  HIT:          0  MISS:          0
L1I PREFETCH  ACCESS:    4424016  HIT:    1214399  MISS:    3209617
L1I WRITEBACK ACCESS:          0  HIT:          0  MISS:          0
L1I PREFETCH  REQUESTED:  106758063  ISSUED:   24998405  USEFUL:    5353720  USELESS:     929144
L1I AVERAGE MISS LATENCY: 17.1397 cycles
L2C TOTAL     ACCESS:    7760297  HIT:    7174638  MISS:     585659
L2C LOAD      ACCESS:    1118951  HIT:     959098  MISS:     159853
L2C RFO       ACCESS:     283504  HIT:     235866  MISS:      47638
L2C PREFETCH  ACCESS:    5742309  HIT:    5367508  MISS:     374801
L2C WRITEBACK ACCESS:     615533  HIT:     612166  MISS:       3367
L2C PREFETCH  REQUESTED:   11687820  ISSUED:   11246330  USEFUL:      48849  USELESS:     693451
L2C AVERAGE MISS LATENCY: 34.511 cycles
LLC TOTAL     ACCESS:    2106421  HIT:    2085676  MISS:      20745
LLC LOAD      ACCESS:     159726  HIT:     156834  MISS:       2892
LLC RFO       ACCESS:      47636  HIT:      45850  MISS:       1786
LLC PREFETCH  ACCESS:    1806972  HIT:    1791014  MISS:      15958
LLC WRITEBACK ACCESS:      92087  HIT:      91978  MISS:        109
LLC PREFETCH  REQUESTED:          0  ISSUED:          0  USEFUL:       4064  USELESS:      19955
LLC AVERAGE MISS LATENCY: 146.676 cycles
Major fault: 0 Minor fault: 2039
CPU 0 L1D next line prefetcher final stats

DRAM Statistics
 CHANNEL 0
 RQ ROW_BUFFER_HIT:       6622  ROW_BUFFER_MISS:      14014
 DBUS_CONGESTED:       6465
 WQ ROW_BUFFER_HIT:        145  ROW_BUFFER_MISS:       2203  FULL:          0

 AVG_CONGESTED_CYCLE: 5

CPU 0 Branch Prediction Accuracy: 99.8445% MPKI: 0.29148 Average ROB Occupancy at Mispredict: 161.627

Branch types
NOT_BRANCH: 40628061 81.2561%
BRANCH_DIRECT_JUMP: 490941 0.981882%
BRANCH_INDIRECT: 175854 0.351708%
BRANCH_CONDITIONAL: 6321413 12.6428%
BRANCH_DIRECT_CALL: 1002072 2.00414%
BRANCH_INDIRECT_CALL: 189783 0.379566%
BRANCH_RETURN: 1191851 2.3837%
BRANCH_OTHER: 0 0%

