Initialize SIGNATURE TABLE
ST_SET: 1
ST_WAY: 256
ST_TAG_BIT: 16
ST_TAG_MASK: ffff

Initialize PATTERN TABLE
PT_SET: 512
PT_WAY: 4
SIG_DELTA_BIT: 7
C_SIG_BIT: 4
C_DELTA_BIT: 4

Initialize PREFETCH FILTER
FILTER_SET: 1024

*** ChampSim Multicore Out-of-Order Simulator ***

Warmup Instructions: 50000000
Simulation Instructions: 50000000
Number of CPUs: 1
LLC sets: 2048
LLC ways: 16
Off-chip DRAM Size: 4096 MB Channels: 1 Width: 64-bit Data Rate: 3200 MT/s

CPU 0 runs /home/tongjie/ChampSim-master/ipc1_public/server_017.champsimtrace.xz
CPU 0 L1D next line prefetcher
Heartbeat CPU 0 instructions: 10000001 cycles: 3625823 heartbeat IPC: 2.75799 cumulative IPC: 2.75799 (Simulation time: 0 hr 0 min 26 sec) 
Heartbeat CPU 0 instructions: 20000000 cycles: 7249575 heartbeat IPC: 2.75957 cumulative IPC: 2.75878 (Simulation time: 0 hr 0 min 51 sec) 
Heartbeat CPU 0 instructions: 30000002 cycles: 10879168 heartbeat IPC: 2.75513 cumulative IPC: 2.75756 (Simulation time: 0 hr 1 min 16 sec) 
Heartbeat CPU 0 instructions: 40000000 cycles: 14504692 heartbeat IPC: 2.75822 cumulative IPC: 2.75773 (Simulation time: 0 hr 1 min 42 sec) 
Heartbeat CPU 0 instructions: 50000001 cycles: 18140734 heartbeat IPC: 2.75024 cumulative IPC: 2.75623 (Simulation time: 0 hr 2 min 7 sec) 

Warmup complete CPU 0 instructions: 50000001 cycles: 18140734 (Simulation time: 0 hr 2 min 7 sec) 

Heartbeat CPU 0 instructions: 60000002 cycles: 36108268 heartbeat IPC: 0.556559 cumulative IPC: 0.556559 (Simulation time: 0 hr 2 min 41 sec) 
Heartbeat CPU 0 instructions: 70000002 cycles: 54337460 heartbeat IPC: 0.548571 cumulative IPC: 0.552536 (Simulation time: 0 hr 3 min 16 sec) 
Heartbeat CPU 0 instructions: 80000000 cycles: 72238198 heartbeat IPC: 0.558636 cumulative IPC: 0.554555 (Simulation time: 0 hr 3 min 49 sec) 
Heartbeat CPU 0 instructions: 90000002 cycles: 95895374 heartbeat IPC: 0.422705 cumulative IPC: 0.514439 (Simulation time: 0 hr 4 min 24 sec) 
Heartbeat CPU 0 instructions: 100000003 cycles: 116271575 heartbeat IPC: 0.490769 cumulative IPC: 0.509524 (Simulation time: 0 hr 4 min 58 sec) 
Finished CPU 0 instructions: 50000002 cycles: 98130841 cumulative IPC: 0.509524 (Simulation time: 0 hr 4 min 58 sec) 

ChampSim completed all CPUs

Region of Interest Statistics

CPU 0 cumulative IPC: 0.509524 instructions: 50000002 cycles: 98130841
L1D TOTAL     ACCESS:   18423535  HIT:   16258007  MISS:    2165528
L1D LOAD      ACCESS:    7041249  HIT:    6286081  MISS:     755168
L1D RFO       ACCESS:    5543952  HIT:    4684844  MISS:     859108
L1D PREFETCH  ACCESS:    5838334  HIT:    5287082  MISS:     551252
L1D WRITEBACK ACCESS:          0  HIT:          0  MISS:          0
L1D PREFETCH  REQUESTED:   16512159  ISSUED:   16119489  USEFUL:     596497  USELESS:     705965
L1D AVERAGE MISS LATENCY: 173.576 cycles
L1I TOTAL     ACCESS:   12936763  HIT:   10698950  MISS:    2237813
L1I LOAD      ACCESS:    9868809  HIT:    9693574  MISS:     175235
L1I RFO       ACCESS:          0  HIT:          0  MISS:          0
L1I PREFETCH  ACCESS:    3067954  HIT:    1005376  MISS:    2062578
L1I WRITEBACK ACCESS:          0  HIT:          0  MISS:          0
L1I PREFETCH  REQUESTED:   76438956  ISSUED:   18754714  USEFUL:    4106006  USELESS:     222859
L1I AVERAGE MISS LATENCY: 18.4756 cycles
L2C TOTAL     ACCESS:    6406344  HIT:    4562801  MISS:    1843543
L2C LOAD      ACCESS:     668953  HIT:     325976  MISS:     342977
L2C RFO       ACCESS:     858671  HIT:      17394  MISS:     841277
L2C PREFETCH  ACCESS:    3755862  HIT:    3098482  MISS:     657380
L2C WRITEBACK ACCESS:    1122858  HIT:    1120949  MISS:       1909
L2C PREFETCH  REQUESTED:    9082346  ISSUED:    8943731  USEFUL:      99967  USELESS:    1191681
L2C AVERAGE MISS LATENCY: 208.695 cycles
LLC TOTAL     ACCESS:    4057873  HIT:    2483009  MISS:    1574864
LLC LOAD      ACCESS:     342926  HIT:     182265  MISS:     160661
LLC RFO       ACCESS:     841277  HIT:     122551  MISS:     718726
LLC PREFETCH  ACCESS:    1812133  HIT:    1119168  MISS:     692965
LLC WRITEBACK ACCESS:    1061537  HIT:    1059025  MISS:       2512
LLC PREFETCH  REQUESTED:          0  ISSUED:          0  USEFUL:      88914  USELESS:    1163005
LLC AVERAGE MISS LATENCY: 257.975 cycles
Major fault: 0 Minor fault: 24694
CPU 0 L1D next line prefetcher final stats

DRAM Statistics
 CHANNEL 0
 RQ ROW_BUFFER_HIT:     372625  ROW_BUFFER_MISS:    1199557
 DBUS_CONGESTED:    1493105
 WQ ROW_BUFFER_HIT:     265184  ROW_BUFFER_MISS:     612021  FULL:          0

 AVG_CONGESTED_CYCLE: 6

CPU 0 Branch Prediction Accuracy: 99.2833% MPKI: 1.20568 Average ROB Occupancy at Mispredict: 178.25

Branch types
NOT_BRANCH: 41588350 83.1767%
BRANCH_DIRECT_JUMP: 464501 0.929002%
BRANCH_INDIRECT: 45704 0.091408%
BRANCH_CONDITIONAL: 6147408 12.2948%
BRANCH_DIRECT_CALL: 675450 1.3509%
BRANCH_INDIRECT_CALL: 201532 0.403064%
BRANCH_RETURN: 876985 1.75397%
BRANCH_OTHER: 0 0%

