Initialize SIGNATURE TABLE
ST_SET: 1
ST_WAY: 256
ST_TAG_BIT: 16
ST_TAG_MASK: ffff

Initialize PATTERN TABLE
PT_SET: 512
PT_WAY: 4
SIG_DELTA_BIT: 7
C_SIG_BIT: 4
C_DELTA_BIT: 4

Initialize PREFETCH FILTER
FILTER_SET: 1024

*** ChampSim Multicore Out-of-Order Simulator ***

Warmup Instructions: 50000000
Simulation Instructions: 50000000
Number of CPUs: 1
LLC sets: 2048
LLC ways: 16
Off-chip DRAM Size: 4096 MB Channels: 1 Width: 64-bit Data Rate: 3200 MT/s

CPU 0 runs /home/tongjie/ChampSim-master/ipc1_public/server_023.champsimtrace.xz
CPU 0 L1D next line prefetcher
Heartbeat CPU 0 instructions: 10000000 cycles: 3503578 heartbeat IPC: 2.85422 cumulative IPC: 2.85422 (Simulation time: 0 hr 0 min 27 sec) 
Heartbeat CPU 0 instructions: 20000000 cycles: 7007279 heartbeat IPC: 2.85412 cumulative IPC: 2.85417 (Simulation time: 0 hr 0 min 53 sec) 
Heartbeat CPU 0 instructions: 30000001 cycles: 10504174 heartbeat IPC: 2.85968 cumulative IPC: 2.85601 (Simulation time: 0 hr 1 min 20 sec) 
Heartbeat CPU 0 instructions: 40000003 cycles: 14007175 heartbeat IPC: 2.8547 cumulative IPC: 2.85568 (Simulation time: 0 hr 1 min 47 sec) 
Heartbeat CPU 0 instructions: 50000001 cycles: 17511571 heartbeat IPC: 2.85356 cumulative IPC: 2.85526 (Simulation time: 0 hr 2 min 14 sec) 

Warmup complete CPU 0 instructions: 50000001 cycles: 17511571 (Simulation time: 0 hr 2 min 14 sec) 

Heartbeat CPU 0 instructions: 60000002 cycles: 25087074 heartbeat IPC: 1.32004 cumulative IPC: 1.32004 (Simulation time: 0 hr 2 min 40 sec) 
Heartbeat CPU 0 instructions: 70000000 cycles: 32833513 heartbeat IPC: 1.29092 cumulative IPC: 1.30532 (Simulation time: 0 hr 3 min 7 sec) 
Heartbeat CPU 0 instructions: 80000000 cycles: 40477200 heartbeat IPC: 1.30827 cumulative IPC: 1.3063 (Simulation time: 0 hr 3 min 33 sec) 
Heartbeat CPU 0 instructions: 90000000 cycles: 48008357 heartbeat IPC: 1.32782 cumulative IPC: 1.31161 (Simulation time: 0 hr 3 min 56 sec) 
Heartbeat CPU 0 instructions: 100000003 cycles: 55642441 heartbeat IPC: 1.30992 cumulative IPC: 1.31127 (Simulation time: 0 hr 4 min 23 sec) 
Finished CPU 0 instructions: 50000002 cycles: 38130870 cumulative IPC: 1.31127 (Simulation time: 0 hr 4 min 23 sec) 

ChampSim completed all CPUs

Region of Interest Statistics

CPU 0 cumulative IPC: 1.31127 instructions: 50000002 cycles: 38130870
L1D TOTAL     ACCESS:   20019438  HIT:   18552186  MISS:    1467252
L1D LOAD      ACCESS:    7171439  HIT:    6511678  MISS:     659761
L1D RFO       ACCESS:    5997609  HIT:    5735542  MISS:     262067
L1D PREFETCH  ACCESS:    6850390  HIT:    6304966  MISS:     545424
L1D WRITEBACK ACCESS:          0  HIT:          0  MISS:          0
L1D PREFETCH  REQUESTED:   16675434  ISSUED:   16375950  USEFUL:     300824  USELESS:     849751
L1D AVERAGE MISS LATENCY: 24.1512 cycles
L1I TOTAL     ACCESS:   13829513  HIT:   10085248  MISS:    3744265
L1I LOAD      ACCESS:    9404243  HIT:    8811945  MISS:     592298
L1I RFO       ACCESS:          0  HIT:          0  MISS:          0
L1I PREFETCH  ACCESS:    4425270  HIT:    1273303  MISS:    3151967
L1I WRITEBACK ACCESS:          0  HIT:          0  MISS:          0
L1I PREFETCH  REQUESTED:  113088310  ISSUED:   24306895  USEFUL:    3846017  USELESS:    2221917
L1I AVERAGE MISS LATENCY: 17.2152 cycles
L2C TOTAL     ACCESS:    7029697  HIT:    6382246  MISS:     647451
L2C LOAD      ACCESS:    1102885  HIT:     885477  MISS:     217408
L2C RFO       ACCESS:     259763  HIT:     170135  MISS:      89628
L2C PREFETCH  ACCESS:    5167714  HIT:    4829898  MISS:     337816
L2C WRITEBACK ACCESS:     499335  HIT:     496736  MISS:       2599
L2C PREFETCH  REQUESTED:    9575579  ISSUED:    9180915  USEFUL:      69982  USELESS:     620347
L2C AVERAGE MISS LATENCY: 41.4332 cycles
LLC TOTAL     ACCESS:    2023587  HIT:    1976635  MISS:      46952
LLC LOAD      ACCESS:     217278  HIT:     210664  MISS:       6614
LLC RFO       ACCESS:      89608  HIT:      71641  MISS:      17967
LLC PREFETCH  ACCESS:    1577008  HIT:    1554874  MISS:      22134
LLC WRITEBACK ACCESS:     139693  HIT:     139456  MISS:        237
LLC PREFETCH  REQUESTED:          0  ISSUED:          0  USEFUL:       6570  USELESS:      34307
LLC AVERAGE MISS LATENCY: 180.745 cycles
Major fault: 0 Minor fault: 2766
CPU 0 L1D next line prefetcher final stats

DRAM Statistics
 CHANNEL 0
 RQ ROW_BUFFER_HIT:      14564  ROW_BUFFER_MISS:      32134
 DBUS_CONGESTED:      30707
 WQ ROW_BUFFER_HIT:       2470  ROW_BUFFER_MISS:      18657  FULL:          0

 AVG_CONGESTED_CYCLE: 6

CPU 0 Branch Prediction Accuracy: 99.6798% MPKI: 0.58608 Average ROB Occupancy at Mispredict: 122.97

Branch types
NOT_BRANCH: 40848303 81.6966%
BRANCH_DIRECT_JUMP: 548372 1.09674%
BRANCH_INDIRECT: 189802 0.379604%
BRANCH_CONDITIONAL: 6372768 12.7455%
BRANCH_DIRECT_CALL: 862207 1.72441%
BRANCH_INDIRECT_CALL: 158149 0.316298%
BRANCH_RETURN: 1020345 2.04069%
BRANCH_OTHER: 0 0%

