Initialize SIGNATURE TABLE
ST_SET: 1
ST_WAY: 256
ST_TAG_BIT: 16
ST_TAG_MASK: ffff

Initialize PATTERN TABLE
PT_SET: 512
PT_WAY: 4
SIG_DELTA_BIT: 7
C_SIG_BIT: 4
C_DELTA_BIT: 4

Initialize PREFETCH FILTER
FILTER_SET: 1024

*** ChampSim Multicore Out-of-Order Simulator ***

Warmup Instructions: 50000000
Simulation Instructions: 50000000
Number of CPUs: 1
LLC sets: 2048
LLC ways: 16
Off-chip DRAM Size: 4096 MB Channels: 1 Width: 64-bit Data Rate: 3200 MT/s

CPU 0 runs /home/tongjie/ChampSim-master/ipc1_public/spec_x264_001.champsimtrace.xz
CPU 0 L1D next line prefetcher
Heartbeat CPU 0 instructions: 10000002 cycles: 3060092 heartbeat IPC: 3.26788 cumulative IPC: 3.26788 (Simulation time: 0 hr 0 min 17 sec) 
Heartbeat CPU 0 instructions: 20000002 cycles: 6110443 heartbeat IPC: 3.27831 cumulative IPC: 3.27309 (Simulation time: 0 hr 0 min 34 sec) 
Heartbeat CPU 0 instructions: 30000002 cycles: 9146170 heartbeat IPC: 3.2941 cumulative IPC: 3.28006 (Simulation time: 0 hr 0 min 51 sec) 
Heartbeat CPU 0 instructions: 40000000 cycles: 12190949 heartbeat IPC: 3.28431 cumulative IPC: 3.28112 (Simulation time: 0 hr 1 min 8 sec) 
Heartbeat CPU 0 instructions: 50000000 cycles: 15234319 heartbeat IPC: 3.28583 cumulative IPC: 3.28206 (Simulation time: 0 hr 1 min 24 sec) 

Warmup complete CPU 0 instructions: 50000004 cycles: 15234320 (Simulation time: 0 hr 1 min 24 sec) 

Heartbeat CPU 0 instructions: 60000002 cycles: 21246465 heartbeat IPC: 1.6633 cumulative IPC: 1.6633 (Simulation time: 0 hr 1 min 36 sec) 
Heartbeat CPU 0 instructions: 70000000 cycles: 27249712 heartbeat IPC: 1.66576 cumulative IPC: 1.66453 (Simulation time: 0 hr 1 min 49 sec) 
Heartbeat CPU 0 instructions: 80000003 cycles: 33392254 heartbeat IPC: 1.62799 cumulative IPC: 1.65217 (Simulation time: 0 hr 2 min 1 sec) 
Heartbeat CPU 0 instructions: 90000002 cycles: 39511852 heartbeat IPC: 1.63409 cumulative IPC: 1.64761 (Simulation time: 0 hr 2 min 13 sec) 
Heartbeat CPU 0 instructions: 100000002 cycles: 45509758 heartbeat IPC: 1.66725 cumulative IPC: 1.6515 (Simulation time: 0 hr 2 min 26 sec) 
Finished CPU 0 instructions: 50000002 cycles: 30275439 cumulative IPC: 1.6515 (Simulation time: 0 hr 2 min 26 sec) 

ChampSim completed all CPUs

Region of Interest Statistics

CPU 0 cumulative IPC: 1.6515 instructions: 50000002 cycles: 30275439
L1D TOTAL     ACCESS:   13006363  HIT:   12845396  MISS:     160967
L1D LOAD      ACCESS:    5109567  HIT:    5054619  MISS:      54948
L1D RFO       ACCESS:    2882991  HIT:    2848816  MISS:      34175
L1D PREFETCH  ACCESS:    5013805  HIT:    4941961  MISS:      71844
L1D WRITEBACK ACCESS:          0  HIT:          0  MISS:          0
L1D PREFETCH  REQUESTED:   12507047  ISSUED:   12320545  USEFUL:      53854  USELESS:      93122
L1D AVERAGE MISS LATENCY: 40.6369 cycles
L1I TOTAL     ACCESS:    8599085  HIT:    8265517  MISS:     333568
L1I LOAD      ACCESS:    8030009  HIT:    7993234  MISS:      36775
L1I RFO       ACCESS:          0  HIT:          0  MISS:          0
L1I PREFETCH  ACCESS:     569076  HIT:     272283  MISS:     296793
L1I WRITEBACK ACCESS:          0  HIT:          0  MISS:          0
L1I PREFETCH  REQUESTED:   10989551  ISSUED:    2722204  USEFUL:     480399  USELESS:      95335
L1I AVERAGE MISS LATENCY: 14.8545 cycles
L2C TOTAL     ACCESS:     713900  HIT:     675331  MISS:      38569
L2C LOAD      ACCESS:      87226  HIT:      80308  MISS:       6918
L2C RFO       ACCESS:      33938  HIT:      21874  MISS:      12064
L2C PREFETCH  ACCESS:     549675  HIT:     530161  MISS:      19514
L2C WRITEBACK ACCESS:      43061  HIT:      42988  MISS:         73
L2C PREFETCH  REQUESTED:     966428  ISSUED:     962379  USEFUL:      18187  USELESS:      21775
L2C AVERAGE MISS LATENCY: 107.563 cycles
LLC TOTAL     ACCESS:     131432  HIT:     102628  MISS:      28804
LLC LOAD      ACCESS:       6903  HIT:       4696  MISS:       2207
LLC RFO       ACCESS:      12064  HIT:        436  MISS:      11628
LLC PREFETCH  ACCESS:      98901  HIT:      84000  MISS:      14901
LLC WRITEBACK ACCESS:      13564  HIT:      13496  MISS:         68
LLC PREFETCH  REQUESTED:          0  ISSUED:          0  USEFUL:       3964  USELESS:      16133
LLC AVERAGE MISS LATENCY: 165.27 cycles
Major fault: 0 Minor fault: 1284
CPU 0 L1D next line prefetcher final stats

DRAM Statistics
 CHANNEL 0
 RQ ROW_BUFFER_HIT:       8892  ROW_BUFFER_MISS:      19844
 DBUS_CONGESTED:      12213
 WQ ROW_BUFFER_HIT:       2933  ROW_BUFFER_MISS:       9842  FULL:          0

 AVG_CONGESTED_CYCLE: 6

CPU 0 Branch Prediction Accuracy: 97.1633% MPKI: 1.73704 Average ROB Occupancy at Mispredict: 36.832

Branch types
NOT_BRANCH: 46937910 93.8758%
BRANCH_DIRECT_JUMP: 170816 0.341632%
BRANCH_INDIRECT: 0 0%
BRANCH_CONDITIONAL: 2532772 5.06554%
BRANCH_DIRECT_CALL: 114227 0.228454%
BRANCH_INDIRECT_CALL: 64863 0.129726%
BRANCH_RETURN: 179089 0.358178%
BRANCH_OTHER: 0 0%

