Initialize SIGNATURE TABLE
ST_SET: 1
ST_WAY: 256
ST_TAG_BIT: 16
ST_TAG_MASK: ffff

Initialize PATTERN TABLE
PT_SET: 512
PT_WAY: 4
SIG_DELTA_BIT: 7
C_SIG_BIT: 4
C_DELTA_BIT: 4

Initialize PREFETCH FILTER
FILTER_SET: 1024

*** ChampSim Multicore Out-of-Order Simulator ***

Warmup Instructions: 50000000
Simulation Instructions: 50000000
Number of CPUs: 1
LLC sets: 2048
LLC ways: 16
Off-chip DRAM Size: 4096 MB Channels: 1 Width: 64-bit Data Rate: 3200 MT/s

CPU 0 runs /home/tongjie/ChampSim-master/ipc1_public/spec_gobmk_002.champsimtrace.xz
CPU 0 L1D next line prefetcher
Heartbeat CPU 0 instructions: 10000001 cycles: 3287560 heartbeat IPC: 3.04177 cumulative IPC: 3.04177 (Simulation time: 0 hr 0 min 23 sec) 
Heartbeat CPU 0 instructions: 20000000 cycles: 6619198 heartbeat IPC: 3.00153 cumulative IPC: 3.02151 (Simulation time: 0 hr 0 min 45 sec) 
Heartbeat CPU 0 instructions: 30000000 cycles: 9957246 heartbeat IPC: 2.99576 cumulative IPC: 3.01288 (Simulation time: 0 hr 1 min 8 sec) 
Heartbeat CPU 0 instructions: 40000000 cycles: 13266856 heartbeat IPC: 3.0215 cumulative IPC: 3.01503 (Simulation time: 0 hr 1 min 32 sec) 
Heartbeat CPU 0 instructions: 50000003 cycles: 16530543 heartbeat IPC: 3.06402 cumulative IPC: 3.0247 (Simulation time: 0 hr 1 min 58 sec) 

Warmup complete CPU 0 instructions: 50000003 cycles: 16530543 (Simulation time: 0 hr 1 min 58 sec) 

Heartbeat CPU 0 instructions: 60000002 cycles: 24801244 heartbeat IPC: 1.20909 cumulative IPC: 1.20909 (Simulation time: 0 hr 2 min 20 sec) 
Heartbeat CPU 0 instructions: 70000001 cycles: 32998133 heartbeat IPC: 1.21997 cumulative IPC: 1.21451 (Simulation time: 0 hr 2 min 40 sec) 
Heartbeat CPU 0 instructions: 80000001 cycles: 41061651 heartbeat IPC: 1.24015 cumulative IPC: 1.22294 (Simulation time: 0 hr 2 min 59 sec) 
Heartbeat CPU 0 instructions: 90000001 cycles: 49347959 heartbeat IPC: 1.20681 cumulative IPC: 1.21886 (Simulation time: 0 hr 3 min 18 sec) 
Heartbeat CPU 0 instructions: 100000003 cycles: 57982874 heartbeat IPC: 1.15809 cumulative IPC: 1.2062 (Simulation time: 0 hr 3 min 35 sec) 
Finished CPU 0 instructions: 50000000 cycles: 41452331 cumulative IPC: 1.2062 (Simulation time: 0 hr 3 min 35 sec) 

ChampSim completed all CPUs

Region of Interest Statistics

CPU 0 cumulative IPC: 1.2062 instructions: 50000000 cycles: 41452331
L1D TOTAL     ACCESS:   18005887  HIT:   17882758  MISS:     123129
L1D LOAD      ACCESS:    6841935  HIT:    6807791  MISS:      34144
L1D RFO       ACCESS:    4397817  HIT:    4355210  MISS:      42607
L1D PREFETCH  ACCESS:    6766135  HIT:    6719757  MISS:      46378
L1D WRITEBACK ACCESS:          0  HIT:          0  MISS:          0
L1D PREFETCH  REQUESTED:   14564621  ISSUED:   14396999  USEFUL:      39144  USELESS:      64086
L1D AVERAGE MISS LATENCY: 50.2776 cycles
L1I TOTAL     ACCESS:   16442870  HIT:   13208168  MISS:    3234702
L1I LOAD      ACCESS:    8951840  HIT:    8436332  MISS:     515508
L1I RFO       ACCESS:          0  HIT:          0  MISS:          0
L1I PREFETCH  ACCESS:    7491030  HIT:    4771836  MISS:    2719194
L1I WRITEBACK ACCESS:          0  HIT:          0  MISS:          0
L1I PREFETCH  REQUESTED:  115113960  ISSUED:   28288225  USEFUL:    1702357  USELESS:    3093457
L1I AVERAGE MISS LATENCY: 14.4601 cycles
L2C TOTAL     ACCESS:    4954337  HIT:    4917522  MISS:      36815
L2C LOAD      ACCESS:     512209  HIT:     496922  MISS:      15287
L2C RFO       ACCESS:      42493  HIT:      39773  MISS:       2720
L2C PREFETCH  ACCESS:    4325442  HIT:    4306769  MISS:      18673
L2C WRITEBACK ACCESS:      74193  HIT:      74058  MISS:        135
L2C PREFETCH  REQUESTED:    4307999  ISSUED:    4305003  USEFUL:       5816  USELESS:      34469
L2C AVERAGE MISS LATENCY: 125.125 cycles
LLC TOTAL     ACCESS:     204399  HIT:     173285  MISS:      31114
LLC LOAD      ACCESS:      15287  HIT:       6466  MISS:       8821
LLC RFO       ACCESS:       2720  HIT:       1099  MISS:       1621
LLC PREFETCH  ACCESS:     168480  HIT:     148337  MISS:      20143
LLC WRITEBACK ACCESS:      17912  HIT:      17383  MISS:        529
LLC PREFETCH  REQUESTED:          0  ISSUED:          0  USEFUL:       7159  USELESS:      25510
LLC AVERAGE MISS LATENCY: 181.457 cycles
Major fault: 0 Minor fault: 2776
CPU 0 L1D next line prefetcher final stats

DRAM Statistics
 CHANNEL 0
 RQ ROW_BUFFER_HIT:       2531  ROW_BUFFER_MISS:      28054
 DBUS_CONGESTED:      14078
 WQ ROW_BUFFER_HIT:        753  ROW_BUFFER_MISS:      12604  FULL:          0

 AVG_CONGESTED_CYCLE: 4

CPU 0 Branch Prediction Accuracy: 93.9974% MPKI: 10.2447 Average ROB Occupancy at Mispredict: 33.3604

Branch types
NOT_BRANCH: 41466047 82.9321%
BRANCH_DIRECT_JUMP: 464313 0.928626%
BRANCH_INDIRECT: 32 6.4e-05%
BRANCH_CONDITIONAL: 7069451 14.1389%
BRANCH_DIRECT_CALL: 499586 0.999172%
BRANCH_INDIRECT_CALL: 342 0.000684%
BRANCH_RETURN: 499906 0.999812%
BRANCH_OTHER: 0 0%

