Initialize SIGNATURE TABLE
ST_SET: 1
ST_WAY: 256
ST_TAG_BIT: 16
ST_TAG_MASK: ffff

Initialize PATTERN TABLE
PT_SET: 512
PT_WAY: 4
SIG_DELTA_BIT: 7
C_SIG_BIT: 4
C_DELTA_BIT: 4

Initialize PREFETCH FILTER
FILTER_SET: 1024

*** ChampSim Multicore Out-of-Order Simulator ***

Warmup Instructions: 50000000
Simulation Instructions: 50000000
Number of CPUs: 1
LLC sets: 2048
LLC ways: 16
Off-chip DRAM Size: 4096 MB Channels: 1 Width: 64-bit Data Rate: 3200 MT/s

CPU 0 runs /home/tongjie/ChampSim-master/ipc1_public/spec_gcc_003.champsimtrace.xz
CPU 0 L1D next line prefetcher
Heartbeat CPU 0 instructions: 10000001 cycles: 3499128 heartbeat IPC: 2.85786 cumulative IPC: 2.85786 (Simulation time: 0 hr 0 min 19 sec) 
Heartbeat CPU 0 instructions: 20000000 cycles: 6970427 heartbeat IPC: 2.88077 cumulative IPC: 2.86926 (Simulation time: 0 hr 0 min 38 sec) 
Heartbeat CPU 0 instructions: 30000002 cycles: 10417486 heartbeat IPC: 2.90102 cumulative IPC: 2.87977 (Simulation time: 0 hr 0 min 55 sec) 
Heartbeat CPU 0 instructions: 40000000 cycles: 13885684 heartbeat IPC: 2.88334 cumulative IPC: 2.88066 (Simulation time: 0 hr 1 min 13 sec) 
Heartbeat CPU 0 instructions: 50000001 cycles: 17195591 heartbeat IPC: 3.02123 cumulative IPC: 2.90772 (Simulation time: 0 hr 1 min 30 sec) 

Warmup complete CPU 0 instructions: 50000001 cycles: 17195591 (Simulation time: 0 hr 1 min 30 sec) 

Heartbeat CPU 0 instructions: 60000000 cycles: 57549474 heartbeat IPC: 0.247808 cumulative IPC: 0.247808 (Simulation time: 0 hr 2 min 16 sec) 
Heartbeat CPU 0 instructions: 70000000 cycles: 100818800 heartbeat IPC: 0.231111 cumulative IPC: 0.239168 (Simulation time: 0 hr 3 min 5 sec) 
Heartbeat CPU 0 instructions: 80000003 cycles: 144855550 heartbeat IPC: 0.227083 cumulative IPC: 0.234999 (Simulation time: 0 hr 3 min 54 sec) 
Heartbeat CPU 0 instructions: 90000002 cycles: 182154927 heartbeat IPC: 0.268101 cumulative IPC: 0.242484 (Simulation time: 0 hr 4 min 36 sec) 
Heartbeat CPU 0 instructions: 100000000 cycles: 228682756 heartbeat IPC: 0.214925 cumulative IPC: 0.236421 (Simulation time: 0 hr 5 min 25 sec) 
Finished CPU 0 instructions: 50000000 cycles: 211487166 cumulative IPC: 0.236421 (Simulation time: 0 hr 5 min 25 sec) 

ChampSim completed all CPUs

Region of Interest Statistics

CPU 0 cumulative IPC: 0.236421 instructions: 50000000 cycles: 211487166
L1D TOTAL     ACCESS:   16947974  HIT:   11223654  MISS:    5724320
L1D LOAD      ACCESS:    4611478  HIT:    4228576  MISS:     382902
L1D RFO       ACCESS:    8214079  HIT:    3162527  MISS:    5051552
L1D PREFETCH  ACCESS:    4122417  HIT:    3832551  MISS:     289866
L1D WRITEBACK ACCESS:          0  HIT:          0  MISS:          0
L1D PREFETCH  REQUESTED:   10679971  ISSUED:   10525398  USEFUL:     389344  USELESS:     270925
L1D AVERAGE MISS LATENCY: 508.357 cycles
L1I TOTAL     ACCESS:   13740048  HIT:   12240547  MISS:    1499501
L1I LOAD      ACCESS:   11290182  HIT:   11081849  MISS:     208333
L1I RFO       ACCESS:          0  HIT:          0  MISS:          0
L1I PREFETCH  ACCESS:    2449866  HIT:    1158698  MISS:    1291168
L1I WRITEBACK ACCESS:          0  HIT:          0  MISS:          0
L1I PREFETCH  REQUESTED:   62642596  ISSUED:   11876099  USEFUL:    1327334  USELESS:    1120494
L1I AVERAGE MISS LATENCY: 42.0994 cycles
L2C TOTAL     ACCESS:   12812073  HIT:    6703356  MISS:    6108717
L2C LOAD      ACCESS:     371898  HIT:     161078  MISS:     210820
L2C RFO       ACCESS:    5049796  HIT:       6465  MISS:    5043331
L2C PREFETCH  ACCESS:    2232526  HIT:    1378368  MISS:     854158
L2C WRITEBACK ACCESS:    5157853  HIT:    5157445  MISS:        408
L2C PREFETCH  REQUESTED:    5342810  ISSUED:    5296598  USEFUL:     118942  USELESS:    1841887
L2C AVERAGE MISS LATENCY: 472.144 cycles
LLC TOTAL     ACCESS:   12089343  HIT:    7386058  MISS:    4703285
LLC LOAD      ACCESS:     210780  HIT:     161251  MISS:      49529
LLC RFO       ACCESS:    5043332  HIT:     608511  MISS:    4434821
LLC PREFETCH  ACCESS:    1701388  HIT:    1482453  MISS:     218935
LLC WRITEBACK ACCESS:    5133843  HIT:    5133843  MISS:          0
LLC PREFETCH  REQUESTED:          0  ISSUED:          0  USEFUL:      40900  USELESS:     424833
LLC AVERAGE MISS LATENCY: 580.664 cycles
Major fault: 0 Minor fault: 2817
CPU 0 L1D next line prefetcher final stats

DRAM Statistics
 CHANNEL 0
 RQ ROW_BUFFER_HIT:    1404339  ROW_BUFFER_MISS:    3298890
 DBUS_CONGESTED:    8220305
 WQ ROW_BUFFER_HIT:    1199485  ROW_BUFFER_MISS:    3264246  FULL:          0

 AVG_CONGESTED_CYCLE: 6

CPU 0 Branch Prediction Accuracy: 99.665% MPKI: 0.78342 Average ROB Occupancy at Mispredict: 111.763

Branch types
NOT_BRANCH: 38305861 76.6117%
BRANCH_DIRECT_JUMP: 384281 0.768562%
BRANCH_INDIRECT: 71949 0.143898%
BRANCH_CONDITIONAL: 9879826 19.7597%
BRANCH_DIRECT_CALL: 650586 1.30117%
BRANCH_INDIRECT_CALL: 28456 0.056912%
BRANCH_RETURN: 679046 1.35809%
BRANCH_OTHER: 0 0%

