Initialize SIGNATURE TABLE
ST_SET: 1
ST_WAY: 256
ST_TAG_BIT: 16
ST_TAG_MASK: ffff

Initialize PATTERN TABLE
PT_SET: 512
PT_WAY: 4
SIG_DELTA_BIT: 7
C_SIG_BIT: 4
C_DELTA_BIT: 4

Initialize PREFETCH FILTER
FILTER_SET: 1024

*** ChampSim Multicore Out-of-Order Simulator ***

Warmup Instructions: 50000000
Simulation Instructions: 50000000
Number of CPUs: 1
LLC sets: 2048
LLC ways: 16
Off-chip DRAM Size: 4096 MB Channels: 1 Width: 64-bit Data Rate: 3200 MT/s

CPU 0 runs /home/tongjie/ChampSim-master/ipc1_public/spec_gcc_002.champsimtrace.xz
CPU 0 L1D next line prefetcher
Heartbeat CPU 0 instructions: 10000002 cycles: 3565048 heartbeat IPC: 2.80501 cumulative IPC: 2.80501 (Simulation time: 0 hr 0 min 21 sec) 
Heartbeat CPU 0 instructions: 20000000 cycles: 7148875 heartbeat IPC: 2.79031 cumulative IPC: 2.79764 (Simulation time: 0 hr 0 min 41 sec) 
Heartbeat CPU 0 instructions: 30000000 cycles: 10840313 heartbeat IPC: 2.70897 cumulative IPC: 2.76745 (Simulation time: 0 hr 1 min 2 sec) 
Heartbeat CPU 0 instructions: 40000000 cycles: 14410726 heartbeat IPC: 2.8008 cumulative IPC: 2.77571 (Simulation time: 0 hr 1 min 21 sec) 
Heartbeat CPU 0 instructions: 50000002 cycles: 17911036 heartbeat IPC: 2.85689 cumulative IPC: 2.79158 (Simulation time: 0 hr 1 min 39 sec) 

Warmup complete CPU 0 instructions: 50000002 cycles: 17911036 (Simulation time: 0 hr 1 min 39 sec) 

Heartbeat CPU 0 instructions: 60000001 cycles: 59283212 heartbeat IPC: 0.241708 cumulative IPC: 0.241708 (Simulation time: 0 hr 2 min 25 sec) 
Heartbeat CPU 0 instructions: 70000001 cycles: 92304848 heartbeat IPC: 0.302832 cumulative IPC: 0.26884 (Simulation time: 0 hr 3 min 5 sec) 
Heartbeat CPU 0 instructions: 80000002 cycles: 142926767 heartbeat IPC: 0.197543 cumulative IPC: 0.23997 (Simulation time: 0 hr 3 min 57 sec) 
Heartbeat CPU 0 instructions: 90000001 cycles: 188875124 heartbeat IPC: 0.217636 cumulative IPC: 0.233967 (Simulation time: 0 hr 4 min 45 sec) 
Heartbeat CPU 0 instructions: 100000000 cycles: 221886451 heartbeat IPC: 0.302926 cumulative IPC: 0.245128 (Simulation time: 0 hr 5 min 24 sec) 
Finished CPU 0 instructions: 50000002 cycles: 203975423 cumulative IPC: 0.245128 (Simulation time: 0 hr 5 min 24 sec) 

ChampSim completed all CPUs

Region of Interest Statistics

CPU 0 cumulative IPC: 0.245128 instructions: 50000002 cycles: 203975423
L1D TOTAL     ACCESS:   18385837  HIT:   13152084  MISS:    5233753
L1D LOAD      ACCESS:    6435232  HIT:    5372407  MISS:    1062825
L1D RFO       ACCESS:    7036328  HIT:    3435478  MISS:    3600850
L1D PREFETCH  ACCESS:    4914277  HIT:    4344199  MISS:     570078
L1D WRITEBACK ACCESS:          0  HIT:          0  MISS:          0
L1D PREFETCH  REQUESTED:   13999581  ISSUED:   13838311  USEFUL:    1147604  USELESS:     304101
L1D AVERAGE MISS LATENCY: 337.602 cycles
L1I TOTAL     ACCESS:   14598922  HIT:   12968644  MISS:    1630278
L1I LOAD      ACCESS:   12123807  HIT:   11854946  MISS:     268861
L1I RFO       ACCESS:          0  HIT:          0  MISS:          0
L1I PREFETCH  ACCESS:    2475115  HIT:    1113698  MISS:    1361417
L1I WRITEBACK ACCESS:          0  HIT:          0  MISS:          0
L1I PREFETCH  REQUESTED:   65724354  ISSUED:   11592536  USEFUL:     960791  USELESS:    1547401
L1I AVERAGE MISS LATENCY: 49.5761 cycles
L2C TOTAL     ACCESS:   11205921  HIT:    5814568  MISS:    5391353
L2C LOAD      ACCESS:     487605  HIT:     252407  MISS:     235198
L2C RFO       ACCESS:    3599308  HIT:      12409  MISS:    3586899
L2C PREFETCH  ACCESS:    3393444  HIT:    1824561  MISS:    1568883
L2C WRITEBACK ACCESS:    3725564  HIT:    3725191  MISS:        373
L2C PREFETCH  REQUESTED:    8686207  ISSUED:    8582431  USEFUL:     117045  USELESS:    2892694
L2C AVERAGE MISS LATENCY: 344.827 cycles
LLC TOTAL     ACCESS:   10183181  HIT:    6217503  MISS:    3965678
LLC LOAD      ACCESS:     235029  HIT:     137079  MISS:      97950
LLC RFO       ACCESS:    3586899  HIT:     546667  MISS:    3040232
LLC PREFETCH  ACCESS:    2694657  HIT:    1867162  MISS:     827495
LLC WRITEBACK ACCESS:    3666596  HIT:    3666595  MISS:          1
LLC PREFETCH  REQUESTED:          0  ISSUED:          0  USEFUL:     345518  USELESS:    1346759
LLC AVERAGE MISS LATENCY: 452.432 cycles
Major fault: 0 Minor fault: 4152
CPU 0 L1D next line prefetcher final stats

DRAM Statistics
 CHANNEL 0
 RQ ROW_BUFFER_HIT:    1036969  ROW_BUFFER_MISS:    2926713
 DBUS_CONGESTED:    5611343
 WQ ROW_BUFFER_HIT:     956043  ROW_BUFFER_MISS:    2258959  FULL:          0

 AVG_CONGESTED_CYCLE: 6

CPU 0 Branch Prediction Accuracy: 99.5987% MPKI: 0.82446 Average ROB Occupancy at Mispredict: 114.307

Branch types
NOT_BRANCH: 39726807 79.4536%
BRANCH_DIRECT_JUMP: 391439 0.782878%
BRANCH_INDIRECT: 62076 0.124152%
BRANCH_CONDITIONAL: 8421541 16.8431%
BRANCH_DIRECT_CALL: 672962 1.34592%
BRANCH_INDIRECT_CALL: 26115 0.05223%
BRANCH_RETURN: 699082 1.39816%
BRANCH_OTHER: 0 0%

