Initialize SIGNATURE TABLE
ST_SET: 1
ST_WAY: 256
ST_TAG_BIT: 16
ST_TAG_MASK: ffff

Initialize PATTERN TABLE
PT_SET: 512
PT_WAY: 4
SIG_DELTA_BIT: 7
C_SIG_BIT: 4
C_DELTA_BIT: 4

Initialize PREFETCH FILTER
FILTER_SET: 1024

*** ChampSim Multicore Out-of-Order Simulator ***

Warmup Instructions: 50000000
Simulation Instructions: 50000000
Number of CPUs: 1
LLC sets: 2048
LLC ways: 16
Off-chip DRAM Size: 4096 MB Channels: 1 Width: 64-bit Data Rate: 3200 MT/s

CPU 0 runs /home/tongjie/ChampSim-master/ipc1_public/spec_gcc_001.champsimtrace.xz
CPU 0 L1D next line prefetcher
Heartbeat CPU 0 instructions: 10000003 cycles: 3220958 heartbeat IPC: 3.10467 cumulative IPC: 3.10467 (Simulation time: 0 hr 0 min 22 sec) 
Heartbeat CPU 0 instructions: 20000002 cycles: 6467340 heartbeat IPC: 3.08035 cumulative IPC: 3.09246 (Simulation time: 0 hr 0 min 45 sec) 
Heartbeat CPU 0 instructions: 30000000 cycles: 9670710 heartbeat IPC: 3.12171 cumulative IPC: 3.10215 (Simulation time: 0 hr 1 min 7 sec) 
Heartbeat CPU 0 instructions: 40000001 cycles: 12914282 heartbeat IPC: 3.08302 cumulative IPC: 3.09735 (Simulation time: 0 hr 1 min 29 sec) 
Heartbeat CPU 0 instructions: 50000001 cycles: 16156580 heartbeat IPC: 3.08423 cumulative IPC: 3.09471 (Simulation time: 0 hr 1 min 50 sec) 

Warmup complete CPU 0 instructions: 50000001 cycles: 16156580 (Simulation time: 0 hr 1 min 50 sec) 

Heartbeat CPU 0 instructions: 60000001 cycles: 24604628 heartbeat IPC: 1.18371 cumulative IPC: 1.18371 (Simulation time: 0 hr 2 min 10 sec) 
Heartbeat CPU 0 instructions: 70000002 cycles: 32892650 heartbeat IPC: 1.20656 cumulative IPC: 1.19502 (Simulation time: 0 hr 2 min 31 sec) 
Heartbeat CPU 0 instructions: 80000000 cycles: 41163282 heartbeat IPC: 1.2091 cumulative IPC: 1.19968 (Simulation time: 0 hr 2 min 52 sec) 
Heartbeat CPU 0 instructions: 90000001 cycles: 49608195 heartbeat IPC: 1.18414 cumulative IPC: 1.19576 (Simulation time: 0 hr 3 min 12 sec) 
Heartbeat CPU 0 instructions: 100000000 cycles: 58222658 heartbeat IPC: 1.16084 cumulative IPC: 1.18861 (Simulation time: 0 hr 3 min 34 sec) 
Finished CPU 0 instructions: 50000000 cycles: 42066082 cumulative IPC: 1.18861 (Simulation time: 0 hr 3 min 34 sec) 

ChampSim completed all CPUs

Region of Interest Statistics

CPU 0 cumulative IPC: 1.18861 instructions: 50000000 cycles: 42066082
L1D TOTAL     ACCESS:   19662840  HIT:   18557635  MISS:    1105205
L1D LOAD      ACCESS:    7401358  HIT:    6922444  MISS:     478914
L1D RFO       ACCESS:    5126846  HIT:    5047208  MISS:      79638
L1D PREFETCH  ACCESS:    7134636  HIT:    6587983  MISS:     546653
L1D WRITEBACK ACCESS:          0  HIT:          0  MISS:          0
L1D PREFETCH  REQUESTED:   16511469  ISSUED:   16279730  USEFUL:     401530  USELESS:     403999
L1D AVERAGE MISS LATENCY: 26.6999 cycles
L1I TOTAL     ACCESS:   11810838  HIT:    9833499  MISS:    1977339
L1I LOAD      ACCESS:    9373573  HIT:    8911212  MISS:     462361
L1I RFO       ACCESS:          0  HIT:          0  MISS:          0
L1I PREFETCH  ACCESS:    2437265  HIT:     922287  MISS:    1514978
L1I WRITEBACK ACCESS:          0  HIT:          0  MISS:          0
L1I PREFETCH  REQUESTED:   41699037  ISSUED:    8799556  USEFUL:     376724  USELESS:    1944698
L1I AVERAGE MISS LATENCY: 16.5597 cycles
L2C TOTAL     ACCESS:    4666526  HIT:    4344333  MISS:     322193
L2C LOAD      ACCESS:     892602  HIT:     785701  MISS:     106901
L2C RFO       ACCESS:      75074  HIT:      34786  MISS:      40288
L2C PREFETCH  ACCESS:    3445088  HIT:    3271149  MISS:     173939
L2C WRITEBACK ACCESS:     253762  HIT:     252697  MISS:       1065
L2C PREFETCH  REQUESTED:    5013750  ISSUED:    4935591  USEFUL:      53159  USELESS:     201736
L2C AVERAGE MISS LATENCY: 55.4082 cycles
LLC TOTAL     ACCESS:    1050497  HIT:     977811  MISS:      72686
LLC LOAD      ACCESS:     106692  HIT:      95822  MISS:      10870
LLC RFO       ACCESS:      40288  HIT:      19248  MISS:      21040
LLC PREFETCH  ACCESS:     801996  HIT:     761893  MISS:      40103
LLC WRITEBACK ACCESS:     101521  HIT:     100848  MISS:        673
LLC PREFETCH  REQUESTED:          0  ISSUED:          0  USEFUL:      46133  USELESS:      69728
LLC AVERAGE MISS LATENCY: 188.787 cycles
Major fault: 0 Minor fault: 6865
CPU 0 L1D next line prefetcher final stats

DRAM Statistics
 CHANNEL 0
 RQ ROW_BUFFER_HIT:      18761  ROW_BUFFER_MISS:      53251
 DBUS_CONGESTED:      34470
 WQ ROW_BUFFER_HIT:       4571  ROW_BUFFER_MISS:      23167  FULL:          0

 AVG_CONGESTED_CYCLE: 6

CPU 0 Branch Prediction Accuracy: 95.8872% MPKI: 9.67286 Average ROB Occupancy at Mispredict: 57.2681

Branch types
NOT_BRANCH: 38240102 76.4802%
BRANCH_DIRECT_JUMP: 653296 1.30659%
BRANCH_INDIRECT: 37098 0.074196%
BRANCH_CONDITIONAL: 8897819 17.7956%
BRANCH_DIRECT_CALL: 992620 1.98524%
BRANCH_INDIRECT_CALL: 93046 0.186092%
BRANCH_RETURN: 1085674 2.17135%
BRANCH_OTHER: 0 0%

