Initialize SIGNATURE TABLE
ST_SET: 1
ST_WAY: 256
ST_TAG_BIT: 16
ST_TAG_MASK: ffff

Initialize PATTERN TABLE
PT_SET: 512
PT_WAY: 4
SIG_DELTA_BIT: 7
C_SIG_BIT: 4
C_DELTA_BIT: 4

Initialize PREFETCH FILTER
FILTER_SET: 1024

*** ChampSim Multicore Out-of-Order Simulator ***

Warmup Instructions: 50000000
Simulation Instructions: 50000000
Number of CPUs: 1
LLC sets: 2048
LLC ways: 16
Off-chip DRAM Size: 4096 MB Channels: 1 Width: 64-bit Data Rate: 3200 MT/s

CPU 0 runs /home/tongjie/ChampSim-master/ipc1_public/spec_perlbench_001.champsimtrace.xz
CPU 0 L1D next line prefetcher
Heartbeat CPU 0 instructions: 10000000 cycles: 3277458 heartbeat IPC: 3.05115 cumulative IPC: 3.05115 (Simulation time: 0 hr 0 min 24 sec) 
Heartbeat CPU 0 instructions: 20000000 cycles: 6545389 heartbeat IPC: 3.06004 cumulative IPC: 3.05559 (Simulation time: 0 hr 0 min 50 sec) 
Heartbeat CPU 0 instructions: 30000002 cycles: 9867928 heartbeat IPC: 3.00975 cumulative IPC: 3.04015 (Simulation time: 0 hr 1 min 17 sec) 
Heartbeat CPU 0 instructions: 40000002 cycles: 13125244 heartbeat IPC: 3.07001 cumulative IPC: 3.04756 (Simulation time: 0 hr 1 min 39 sec) 
Heartbeat CPU 0 instructions: 50000001 cycles: 16399247 heartbeat IPC: 3.05436 cumulative IPC: 3.04892 (Simulation time: 0 hr 2 min 2 sec) 

Warmup complete CPU 0 instructions: 50000001 cycles: 16399247 (Simulation time: 0 hr 2 min 2 sec) 

Heartbeat CPU 0 instructions: 60000001 cycles: 25129825 heartbeat IPC: 1.1454 cumulative IPC: 1.1454 (Simulation time: 0 hr 2 min 28 sec) 
Heartbeat CPU 0 instructions: 70000000 cycles: 33867709 heartbeat IPC: 1.14444 cumulative IPC: 1.14492 (Simulation time: 0 hr 2 min 52 sec) 
Heartbeat CPU 0 instructions: 80000000 cycles: 42574625 heartbeat IPC: 1.14851 cumulative IPC: 1.14612 (Simulation time: 0 hr 3 min 15 sec) 
Heartbeat CPU 0 instructions: 90000000 cycles: 48442209 heartbeat IPC: 1.70428 cumulative IPC: 1.24832 (Simulation time: 0 hr 3 min 31 sec) 
Heartbeat CPU 0 instructions: 100000002 cycles: 54462592 heartbeat IPC: 1.66102 cumulative IPC: 1.3136 (Simulation time: 0 hr 3 min 46 sec) 
Finished CPU 0 instructions: 50000001 cycles: 38063345 cumulative IPC: 1.3136 (Simulation time: 0 hr 3 min 46 sec) 

ChampSim completed all CPUs

Region of Interest Statistics

CPU 0 cumulative IPC: 1.3136 instructions: 50000001 cycles: 38063345
L1D TOTAL     ACCESS:   20914750  HIT:   20499612  MISS:     415138
L1D LOAD      ACCESS:    7280966  HIT:    7067361  MISS:     213605
L1D RFO       ACCESS:    6547157  HIT:    6528654  MISS:      18503
L1D PREFETCH  ACCESS:    7086627  HIT:    6903597  MISS:     183030
L1D WRITEBACK ACCESS:          0  HIT:          0  MISS:          0
L1D PREFETCH  REQUESTED:   16227804  ISSUED:   15934447  USEFUL:     121145  USELESS:     277713
L1D AVERAGE MISS LATENCY: 58.7671 cycles
L1I TOTAL     ACCESS:   12195184  HIT:   10541919  MISS:    1653265
L1I LOAD      ACCESS:    9217410  HIT:    8978918  MISS:     238492
L1I RFO       ACCESS:          0  HIT:          0  MISS:          0
L1I PREFETCH  ACCESS:    2977774  HIT:    1563001  MISS:    1414773
L1I WRITEBACK ACCESS:          0  HIT:          0  MISS:          0
L1I PREFETCH  REQUESTED:   70683774  ISSUED:   13873490  USEFUL:     826135  USELESS:    1853261
L1I AVERAGE MISS LATENCY: 15.5902 cycles
L2C TOTAL     ACCESS:    2821133  HIT:    2655715  MISS:     165418
L2C LOAD      ACCESS:     422090  HIT:     333325  MISS:      88765
L2C RFO       ACCESS:      18277  HIT:      12722  MISS:       5555
L2C PREFETCH  ACCESS:    2301804  HIT:    2231179  MISS:      70625
L2C WRITEBACK ACCESS:      78962  HIT:      78489  MISS:        473
L2C PREFETCH  REQUESTED:    2987453  ISSUED:    2959781  USEFUL:      11271  USELESS:     131249
L2C AVERAGE MISS LATENCY: 119.313 cycles
LLC TOTAL     ACCESS:     508785  HIT:     371090  MISS:     137695
LLC LOAD      ACCESS:      88755  HIT:      37653  MISS:      51102
LLC RFO       ACCESS:       5555  HIT:       2503  MISS:       3052
LLC PREFETCH  ACCESS:     388401  HIT:     305290  MISS:      83111
LLC WRITEBACK ACCESS:      26074  HIT:      25644  MISS:        430
LLC PREFETCH  REQUESTED:          0  ISSUED:          0  USEFUL:      26158  USELESS:     124112
LLC AVERAGE MISS LATENCY: 157.705 cycles
Major fault: 0 Minor fault: 6364
CPU 0 L1D next line prefetcher final stats

DRAM Statistics
 CHANNEL 0
 RQ ROW_BUFFER_HIT:      31240  ROW_BUFFER_MISS:     106024
 DBUS_CONGESTED:      53756
 WQ ROW_BUFFER_HIT:       4447  ROW_BUFFER_MISS:      12735  FULL:          0

 AVG_CONGESTED_CYCLE: 4

CPU 0 Branch Prediction Accuracy: 98.7418% MPKI: 2.47758 Average ROB Occupancy at Mispredict: 70.4071

Branch types
NOT_BRANCH: 40154109 80.3082%
BRANCH_DIRECT_JUMP: 817094 1.63419%
BRANCH_INDIRECT: 303788 0.607576%
BRANCH_CONDITIONAL: 7492104 14.9842%
BRANCH_DIRECT_CALL: 471777 0.943554%
BRANCH_INDIRECT_CALL: 144546 0.289092%
BRANCH_RETURN: 616324 1.23265%
BRANCH_OTHER: 0 0%

