Initialize SIGNATURE TABLE
ST_SET: 1
ST_WAY: 256
ST_TAG_BIT: 16
ST_TAG_MASK: ffff

Initialize PATTERN TABLE
PT_SET: 512
PT_WAY: 4
SIG_DELTA_BIT: 7
C_SIG_BIT: 4
C_DELTA_BIT: 4

Initialize PREFETCH FILTER
FILTER_SET: 1024

*** ChampSim Multicore Out-of-Order Simulator ***

Warmup Instructions: 50000000
Simulation Instructions: 50000000
Number of CPUs: 1
LLC sets: 2048
LLC ways: 16
Off-chip DRAM Size: 4096 MB Channels: 1 Width: 64-bit Data Rate: 3200 MT/s

CPU 0 runs /home/tongjie/ChampSim-master/ipc1_public/client_007.champsimtrace.xz
CPU 0 L1D next line prefetcher
Heartbeat CPU 0 instructions: 10000001 cycles: 3643449 heartbeat IPC: 2.74465 cumulative IPC: 2.74465 (Simulation time: 0 hr 0 min 27 sec) 
Heartbeat CPU 0 instructions: 20000003 cycles: 7036785 heartbeat IPC: 2.94695 cumulative IPC: 2.84221 (Simulation time: 0 hr 0 min 49 sec) 
Heartbeat CPU 0 instructions: 30000000 cycles: 10910775 heartbeat IPC: 2.58132 cumulative IPC: 2.74958 (Simulation time: 0 hr 1 min 14 sec) 
Heartbeat CPU 0 instructions: 40000003 cycles: 15070827 heartbeat IPC: 2.40382 cumulative IPC: 2.65413 (Simulation time: 0 hr 1 min 39 sec) 
Heartbeat CPU 0 instructions: 50000002 cycles: 18476829 heartbeat IPC: 2.93599 cumulative IPC: 2.70609 (Simulation time: 0 hr 2 min 3 sec) 

Warmup complete CPU 0 instructions: 50000002 cycles: 18476829 (Simulation time: 0 hr 2 min 3 sec) 

Heartbeat CPU 0 instructions: 60000003 cycles: 25519500 heartbeat IPC: 1.41992 cumulative IPC: 1.41992 (Simulation time: 0 hr 2 min 31 sec) 
Heartbeat CPU 0 instructions: 70000003 cycles: 34579657 heartbeat IPC: 1.10373 cumulative IPC: 1.24202 (Simulation time: 0 hr 2 min 58 sec) 
Heartbeat CPU 0 instructions: 80000002 cycles: 40076224 heartbeat IPC: 1.81932 cumulative IPC: 1.38893 (Simulation time: 0 hr 3 min 18 sec) 
Heartbeat CPU 0 instructions: 90000002 cycles: 47892830 heartbeat IPC: 1.27933 cumulative IPC: 1.3598 (Simulation time: 0 hr 3 min 44 sec) 
Heartbeat CPU 0 instructions: 100000000 cycles: 56961236 heartbeat IPC: 1.10273 cumulative IPC: 1.29923 (Simulation time: 0 hr 4 min 5 sec) 
Finished CPU 0 instructions: 50000002 cycles: 38484408 cumulative IPC: 1.29923 (Simulation time: 0 hr 4 min 5 sec) 

ChampSim completed all CPUs

Region of Interest Statistics

CPU 0 cumulative IPC: 1.29923 instructions: 50000002 cycles: 38484408
L1D TOTAL     ACCESS:   21349284  HIT:   20180016  MISS:    1169268
L1D LOAD      ACCESS:    8429800  HIT:    7892042  MISS:     537758
L1D RFO       ACCESS:    4897393  HIT:    4806319  MISS:      91074
L1D PREFETCH  ACCESS:    8022091  HIT:    7481655  MISS:     540436
L1D WRITEBACK ACCESS:          0  HIT:          0  MISS:          0
L1D PREFETCH  REQUESTED:   20729709  ISSUED:   20194667  USEFUL:     368592  USELESS:     857327
L1D AVERAGE MISS LATENCY: 34.188 cycles
L1I TOTAL     ACCESS:   10350963  HIT:    9432323  MISS:     918640
L1I LOAD      ACCESS:    9146094  HIT:    9027549  MISS:     118545
L1I RFO       ACCESS:          0  HIT:          0  MISS:          0
L1I PREFETCH  ACCESS:    1204869  HIT:     404774  MISS:     800095
L1I WRITEBACK ACCESS:          0  HIT:          0  MISS:          0
L1I PREFETCH  REQUESTED:   13244928  ISSUED:    6933228  USEFUL:    1347642  USELESS:     160066
L1I AVERAGE MISS LATENCY: 16.5553 cycles
L2C TOTAL     ACCESS:    3059095  HIT:    2852932  MISS:     206163
L2C LOAD      ACCESS:     614211  HIT:     539038  MISS:      75173
L2C RFO       ACCESS:      89472  HIT:      47973  MISS:      41499
L2C PREFETCH  ACCESS:    2027739  HIT:    1938431  MISS:      89308
L2C WRITEBACK ACCESS:     327673  HIT:     327490  MISS:        183
L2C PREFETCH  REQUESTED:    4595087  ISSUED:    4518456  USEFUL:      25144  USELESS:     159506
L2C AVERAGE MISS LATENCY: 121.286 cycles
LLC TOTAL     ACCESS:     928540  HIT:     762441  MISS:     166099
LLC LOAD      ACCESS:      75084  HIT:      38472  MISS:      36612
LLC RFO       ACCESS:      41499  HIT:       7091  MISS:      34408
LLC PREFETCH  ACCESS:     737422  HIT:     642640  MISS:      94782
LLC WRITEBACK ACCESS:      74535  HIT:      74238  MISS:        297
LLC PREFETCH  REQUESTED:          0  ISSUED:          0  USEFUL:      41050  USELESS:     113918
LLC AVERAGE MISS LATENCY: 178.1 cycles
Major fault: 0 Minor fault: 4405
CPU 0 L1D next line prefetcher final stats

DRAM Statistics
 CHANNEL 0
 RQ ROW_BUFFER_HIT:      34838  ROW_BUFFER_MISS:     130958
 DBUS_CONGESTED:      93477
 WQ ROW_BUFFER_HIT:      13316  ROW_BUFFER_MISS:      45413  FULL:          0

 AVG_CONGESTED_CYCLE: 5

CPU 0 Branch Prediction Accuracy: 98.8607% MPKI: 1.8623 Average ROB Occupancy at Mispredict: 106.041

Branch types
NOT_BRANCH: 41826773 83.6535%
BRANCH_DIRECT_JUMP: 735330 1.47066%
BRANCH_INDIRECT: 269194 0.538388%
BRANCH_CONDITIONAL: 5957947 11.9159%
BRANCH_DIRECT_CALL: 368758 0.737516%
BRANCH_INDIRECT_CALL: 226975 0.45395%
BRANCH_RETURN: 614696 1.22939%
BRANCH_OTHER: 0 0%

