Initialize SIGNATURE TABLE
ST_SET: 1
ST_WAY: 256
ST_TAG_BIT: 16
ST_TAG_MASK: ffff

Initialize PATTERN TABLE
PT_SET: 512
PT_WAY: 4
SIG_DELTA_BIT: 7
C_SIG_BIT: 4
C_DELTA_BIT: 4

Initialize PREFETCH FILTER
FILTER_SET: 1024

*** ChampSim Multicore Out-of-Order Simulator ***

Warmup Instructions: 50000000
Simulation Instructions: 50000000
Number of CPUs: 1
LLC sets: 2048
LLC ways: 16
Off-chip DRAM Size: 4096 MB Channels: 1 Width: 64-bit Data Rate: 3200 MT/s

CPU 0 runs /home/tongjie/ChampSim-master/ipc1_public/client_003.champsimtrace.xz
CPU 0 L1D next line prefetcher
Heartbeat CPU 0 instructions: 10000000 cycles: 3479437 heartbeat IPC: 2.87403 cumulative IPC: 2.87403 (Simulation time: 0 hr 0 min 25 sec) 
Heartbeat CPU 0 instructions: 20000002 cycles: 6934799 heartbeat IPC: 2.89405 cumulative IPC: 2.88401 (Simulation time: 0 hr 0 min 51 sec) 
Heartbeat CPU 0 instructions: 30000003 cycles: 10496500 heartbeat IPC: 2.80765 cumulative IPC: 2.8581 (Simulation time: 0 hr 1 min 16 sec) 
Heartbeat CPU 0 instructions: 40000001 cycles: 14113208 heartbeat IPC: 2.76494 cumulative IPC: 2.83422 (Simulation time: 0 hr 1 min 42 sec) 
Heartbeat CPU 0 instructions: 50000003 cycles: 17658829 heartbeat IPC: 2.82038 cumulative IPC: 2.83144 (Simulation time: 0 hr 2 min 6 sec) 

Warmup complete CPU 0 instructions: 50000003 cycles: 17658829 (Simulation time: 0 hr 2 min 6 sec) 

Heartbeat CPU 0 instructions: 60000002 cycles: 24462216 heartbeat IPC: 1.46986 cumulative IPC: 1.46986 (Simulation time: 0 hr 2 min 29 sec) 
Heartbeat CPU 0 instructions: 70000001 cycles: 30943928 heartbeat IPC: 1.5428 cumulative IPC: 1.50545 (Simulation time: 0 hr 2 min 54 sec) 
Heartbeat CPU 0 instructions: 80000000 cycles: 38906264 heartbeat IPC: 1.25591 cumulative IPC: 1.41193 (Simulation time: 0 hr 3 min 19 sec) 
Heartbeat CPU 0 instructions: 90000000 cycles: 48448781 heartbeat IPC: 1.04794 cumulative IPC: 1.29913 (Simulation time: 0 hr 3 min 38 sec) 
Heartbeat CPU 0 instructions: 100000003 cycles: 59395584 heartbeat IPC: 0.913509 cumulative IPC: 1.19798 (Simulation time: 0 hr 4 min 1 sec) 
Finished CPU 0 instructions: 50000000 cycles: 41736755 cumulative IPC: 1.19798 (Simulation time: 0 hr 4 min 1 sec) 

ChampSim completed all CPUs

Region of Interest Statistics

CPU 0 cumulative IPC: 1.19798 instructions: 50000000 cycles: 41736755
L1D TOTAL     ACCESS:   17992611  HIT:   17496407  MISS:     496204
L1D LOAD      ACCESS:    6210729  HIT:    6085113  MISS:     125616
L1D RFO       ACCESS:    5964303  HIT:    5730059  MISS:     234244
L1D PREFETCH  ACCESS:    5817579  HIT:    5681235  MISS:     136344
L1D WRITEBACK ACCESS:          0  HIT:          0  MISS:          0
L1D PREFETCH  REQUESTED:   15630392  ISSUED:   15317520  USEFUL:     119787  USELESS:     161139
L1D AVERAGE MISS LATENCY: 123.95 cycles
L1I TOTAL     ACCESS:   11421374  HIT:   10353542  MISS:    1067832
L1I LOAD      ACCESS:    9473316  HIT:    9106623  MISS:     366693
L1I RFO       ACCESS:          0  HIT:          0  MISS:          0
L1I PREFETCH  ACCESS:    1948058  HIT:    1246919  MISS:     701139
L1I WRITEBACK ACCESS:          0  HIT:          0  MISS:          0
L1I PREFETCH  REQUESTED:   19371584  ISSUED:    9953851  USEFUL:     577040  USELESS:    1081933
L1I AVERAGE MISS LATENCY: 18.1252 cycles
L2C TOTAL     ACCESS:    2397861  HIT:    2011614  MISS:     386247
L2C LOAD      ACCESS:     450251  HIT:     377297  MISS:      72954
L2C RFO       ACCESS:     232186  HIT:      26389  MISS:     205797
L2C PREFETCH  ACCESS:    1446107  HIT:    1339621  MISS:     106486
L2C WRITEBACK ACCESS:     269317  HIT:     268307  MISS:       1010
L2C PREFETCH  REQUESTED:    2698188  ISSUED:    2671565  USEFUL:      20712  USELESS:     146391
L2C AVERAGE MISS LATENCY: 169.624 cycles
LLC TOTAL     ACCESS:     991348  HIT:     709565  MISS:     281783
LLC LOAD      ACCESS:      72847  HIT:      55098  MISS:      17749
LLC RFO       ACCESS:     205791  HIT:      34867  MISS:     170924
LLC PREFETCH  ACCESS:     489413  HIT:     396651  MISS:      92762
LLC WRITEBACK ACCESS:     223297  HIT:     222949  MISS:        348
LLC PREFETCH  REQUESTED:          0  ISSUED:          0  USEFUL:      33235  USELESS:      99950
LLC AVERAGE MISS LATENCY: 232.442 cycles
Major fault: 0 Minor fault: 5042
CPU 0 L1D next line prefetcher final stats

DRAM Statistics
 CHANNEL 0
 RQ ROW_BUFFER_HIT:      98326  ROW_BUFFER_MISS:     183104
 DBUS_CONGESTED:     252520
 WQ ROW_BUFFER_HIT:      59769  ROW_BUFFER_MISS:     118197  FULL:          0

 AVG_CONGESTED_CYCLE: 6

CPU 0 Branch Prediction Accuracy: 98.6631% MPKI: 2.66884 Average ROB Occupancy at Mispredict: 61.7125

Branch types
NOT_BRANCH: 40018662 80.0373%
BRANCH_DIRECT_JUMP: 370861 0.741722%
BRANCH_INDIRECT: 83252 0.166504%
BRANCH_CONDITIONAL: 7877422 15.7548%
BRANCH_DIRECT_CALL: 722308 1.44462%
BRANCH_INDIRECT_CALL: 101901 0.203802%
BRANCH_RETURN: 825353 1.65071%
BRANCH_OTHER: 0 0%

