Initialize SIGNATURE TABLE
ST_SET: 1
ST_WAY: 256
ST_TAG_BIT: 16
ST_TAG_MASK: ffff

Initialize PATTERN TABLE
PT_SET: 512
PT_WAY: 4
SIG_DELTA_BIT: 7
C_SIG_BIT: 4
C_DELTA_BIT: 4

Initialize PREFETCH FILTER
FILTER_SET: 1024

*** ChampSim Multicore Out-of-Order Simulator ***

Warmup Instructions: 50000000
Simulation Instructions: 50000000
Number of CPUs: 1
LLC sets: 2048
LLC ways: 16
Off-chip DRAM Size: 4096 MB Channels: 1 Width: 64-bit Data Rate: 3200 MT/s

CPU 0 runs /home/tongjie/ChampSim-master/ipc1_public/server_030.champsimtrace.xz
CPU 0 L1D next line prefetcher
Heartbeat CPU 0 instructions: 10000003 cycles: 3511045 heartbeat IPC: 2.84816 cumulative IPC: 2.84816 (Simulation time: 0 hr 0 min 27 sec) 
Heartbeat CPU 0 instructions: 20000003 cycles: 7021994 heartbeat IPC: 2.84823 cumulative IPC: 2.84819 (Simulation time: 0 hr 0 min 54 sec) 
Heartbeat CPU 0 instructions: 30000000 cycles: 10531840 heartbeat IPC: 2.84913 cumulative IPC: 2.84851 (Simulation time: 0 hr 1 min 21 sec) 
Heartbeat CPU 0 instructions: 40000002 cycles: 14041357 heartbeat IPC: 2.8494 cumulative IPC: 2.84873 (Simulation time: 0 hr 1 min 49 sec) 
Heartbeat CPU 0 instructions: 50000002 cycles: 17554462 heartbeat IPC: 2.84648 cumulative IPC: 2.84828 (Simulation time: 0 hr 2 min 17 sec) 

Warmup complete CPU 0 instructions: 50000002 cycles: 17554462 (Simulation time: 0 hr 2 min 17 sec) 

Heartbeat CPU 0 instructions: 60000000 cycles: 24777984 heartbeat IPC: 1.38437 cumulative IPC: 1.38437 (Simulation time: 0 hr 2 min 44 sec) 
Heartbeat CPU 0 instructions: 70000000 cycles: 32098391 heartbeat IPC: 1.36604 cumulative IPC: 1.37514 (Simulation time: 0 hr 3 min 12 sec) 
Heartbeat CPU 0 instructions: 80000001 cycles: 39295727 heartbeat IPC: 1.3894 cumulative IPC: 1.37986 (Simulation time: 0 hr 3 min 40 sec) 
*** Reached end of trace for Core: 0 Repeating trace: /home/tongjie/ChampSim-master/ipc1_public/server_030.champsimtrace.xz
Heartbeat CPU 0 instructions: 90000002 cycles: 46586918 heartbeat IPC: 1.37152 cumulative IPC: 1.37777 (Simulation time: 0 hr 4 min 8 sec) 
Heartbeat CPU 0 instructions: 100000002 cycles: 53735127 heartbeat IPC: 1.39895 cumulative IPC: 1.38195 (Simulation time: 0 hr 4 min 35 sec) 
Finished CPU 0 instructions: 50000000 cycles: 36180665 cumulative IPC: 1.38195 (Simulation time: 0 hr 4 min 35 sec) 

ChampSim completed all CPUs

Region of Interest Statistics

CPU 0 cumulative IPC: 1.38195 instructions: 50000000 cycles: 36180665
L1D TOTAL     ACCESS:   19380854  HIT:   17304713  MISS:    2076141
L1D LOAD      ACCESS:    6871499  HIT:    5819016  MISS:    1052483
L1D RFO       ACCESS:    6181367  HIT:    5895880  MISS:     285487
L1D PREFETCH  ACCESS:    6327988  HIT:    5589817  MISS:     738171
L1D WRITEBACK ACCESS:          0  HIT:          0  MISS:          0
L1D PREFETCH  REQUESTED:   16127714  ISSUED:   15814773  USEFUL:     415363  USELESS:    1117735
L1D AVERAGE MISS LATENCY: 18.2441 cycles
L1I TOTAL     ACCESS:   14142623  HIT:   10606198  MISS:    3536425
L1I LOAD      ACCESS:    9704754  HIT:    9379826  MISS:     324928
L1I RFO       ACCESS:          0  HIT:          0  MISS:          0
L1I PREFETCH  ACCESS:    4437869  HIT:    1226372  MISS:    3211497
L1I WRITEBACK ACCESS:          0  HIT:          0  MISS:          0
L1I PREFETCH  REQUESTED:   52531008  ISSUED:   26587680  USEFUL:    5350400  USELESS:     901775
L1I AVERAGE MISS LATENCY: 17.1321 cycles
L2C TOTAL     ACCESS:    7737402  HIT:    7153104  MISS:     584298
L2C LOAD      ACCESS:    1119958  HIT:     961249  MISS:     158709
L2C RFO       ACCESS:     283488  HIT:     235985  MISS:      47503
L2C PREFETCH  ACCESS:    5718432  HIT:    5343687  MISS:     374745
L2C WRITEBACK ACCESS:     615524  HIT:     612183  MISS:       3341
L2C PREFETCH  REQUESTED:   11547846  ISSUED:   11114808  USEFUL:      49170  USELESS:     695936
L2C AVERAGE MISS LATENCY: 34.4988 cycles
LLC TOTAL     ACCESS:    2142854  HIT:    2122533  MISS:      20321
LLC LOAD      ACCESS:     158592  HIT:     155720  MISS:       2872
LLC RFO       ACCESS:      47502  HIT:      45721  MISS:       1781
LLC PREFETCH  ACCESS:    1844846  HIT:    1829290  MISS:      15556
LLC WRITEBACK ACCESS:      91914  HIT:      91802  MISS:        112
LLC PREFETCH  REQUESTED:          0  ISSUED:          0  USEFUL:       4083  USELESS:      19860
LLC AVERAGE MISS LATENCY: 146.022 cycles
Major fault: 0 Minor fault: 2039
CPU 0 L1D next line prefetcher final stats

DRAM Statistics
 CHANNEL 0
 RQ ROW_BUFFER_HIT:       6523  ROW_BUFFER_MISS:      13686
 DBUS_CONGESTED:       6374
 WQ ROW_BUFFER_HIT:        146  ROW_BUFFER_MISS:       2183  FULL:          0

 AVG_CONGESTED_CYCLE: 5

CPU 0 Branch Prediction Accuracy: 99.8445% MPKI: 0.29148 Average ROB Occupancy at Mispredict: 161.461

Branch types
NOT_BRANCH: 40628079 81.2562%
BRANCH_DIRECT_JUMP: 490941 0.981882%
BRANCH_INDIRECT: 175854 0.351708%
BRANCH_CONDITIONAL: 6321415 12.6428%
BRANCH_DIRECT_CALL: 1002072 2.00414%
BRANCH_INDIRECT_CALL: 189783 0.379566%
BRANCH_RETURN: 1191851 2.3837%
BRANCH_OTHER: 0 0%

