Initialize SIGNATURE TABLE
ST_SET: 1
ST_WAY: 256
ST_TAG_BIT: 16
ST_TAG_MASK: ffff

Initialize PATTERN TABLE
PT_SET: 512
PT_WAY: 4
SIG_DELTA_BIT: 7
C_SIG_BIT: 4
C_DELTA_BIT: 4

Initialize PREFETCH FILTER
FILTER_SET: 1024

*** ChampSim Multicore Out-of-Order Simulator ***

Warmup Instructions: 50000000
Simulation Instructions: 50000000
Number of CPUs: 1
LLC sets: 2048
LLC ways: 16
Off-chip DRAM Size: 4096 MB Channels: 1 Width: 64-bit Data Rate: 3200 MT/s

CPU 0 runs /home/tongjie/ChampSim-master/ipc1_public/server_026.champsimtrace.xz
CPU 0 L1D next line prefetcher
Heartbeat CPU 0 instructions: 10000000 cycles: 3537986 heartbeat IPC: 2.82647 cumulative IPC: 2.82647 (Simulation time: 0 hr 0 min 27 sec) 
Heartbeat CPU 0 instructions: 20000002 cycles: 7082450 heartbeat IPC: 2.8213 cumulative IPC: 2.82388 (Simulation time: 0 hr 0 min 55 sec) 
Heartbeat CPU 0 instructions: 30000000 cycles: 10616060 heartbeat IPC: 2.82997 cumulative IPC: 2.82591 (Simulation time: 0 hr 1 min 23 sec) 
Heartbeat CPU 0 instructions: 40000003 cycles: 14159125 heartbeat IPC: 2.82242 cumulative IPC: 2.82503 (Simulation time: 0 hr 1 min 53 sec) 
Heartbeat CPU 0 instructions: 50000000 cycles: 17695432 heartbeat IPC: 2.82781 cumulative IPC: 2.82559 (Simulation time: 0 hr 2 min 21 sec) 

Warmup complete CPU 0 instructions: 50000004 cycles: 17695433 (Simulation time: 0 hr 2 min 21 sec) 

*** Reached end of trace for Core: 0 Repeating trace: /home/tongjie/ChampSim-master/ipc1_public/server_026.champsimtrace.xz
Heartbeat CPU 0 instructions: 60000000 cycles: 25713347 heartbeat IPC: 1.24721 cumulative IPC: 1.24721 (Simulation time: 0 hr 2 min 51 sec) 
Heartbeat CPU 0 instructions: 70000001 cycles: 33653977 heartbeat IPC: 1.25935 cumulative IPC: 1.25325 (Simulation time: 0 hr 3 min 19 sec) 
Heartbeat CPU 0 instructions: 80000002 cycles: 41702287 heartbeat IPC: 1.2425 cumulative IPC: 1.24964 (Simulation time: 0 hr 3 min 47 sec) 
Heartbeat CPU 0 instructions: 90000002 cycles: 49685057 heartbeat IPC: 1.2527 cumulative IPC: 1.25041 (Simulation time: 0 hr 4 min 16 sec) 
Heartbeat CPU 0 instructions: 100000000 cycles: 57712364 heartbeat IPC: 1.24575 cumulative IPC: 1.24947 (Simulation time: 0 hr 4 min 44 sec) 
Finished CPU 0 instructions: 50000000 cycles: 40016932 cumulative IPC: 1.24947 (Simulation time: 0 hr 4 min 44 sec) 

ChampSim completed all CPUs

Region of Interest Statistics

CPU 0 cumulative IPC: 1.24947 instructions: 50000000 cycles: 40016932
L1D TOTAL     ACCESS:   20567119  HIT:   18921658  MISS:    1645461
L1D LOAD      ACCESS:    7320559  HIT:    6592107  MISS:     728452
L1D RFO       ACCESS:    6261630  HIT:    5974316  MISS:     287314
L1D PREFETCH  ACCESS:    6984930  HIT:    6355235  MISS:     629695
L1D WRITEBACK ACCESS:          0  HIT:          0  MISS:          0
L1D PREFETCH  REQUESTED:   16865769  ISSUED:   16529713  USEFUL:     321537  USELESS:     954158
L1D AVERAGE MISS LATENCY: 23.6967 cycles
L1I TOTAL     ACCESS:   14108859  HIT:   10121245  MISS:    3987614
L1I LOAD      ACCESS:    9446759  HIT:    8752374  MISS:     694385
L1I RFO       ACCESS:          0  HIT:          0  MISS:          0
L1I PREFETCH  ACCESS:    4662100  HIT:    1368871  MISS:    3293229
L1I WRITEBACK ACCESS:          0  HIT:          0  MISS:          0
L1I PREFETCH  REQUESTED:   55440896  ISSUED:   26648382  USEFUL:    4246917  USELESS:    2015503
L1I AVERAGE MISS LATENCY: 17.3707 cycles
L2C TOTAL     ACCESS:    7740776  HIT:    7010659  MISS:     730117
L2C LOAD      ACCESS:    1294793  HIT:     997425  MISS:     297368
L2C RFO       ACCESS:     285029  HIT:     190697  MISS:      94332
L2C PREFETCH  ACCESS:    5599766  HIT:    5265104  MISS:     334662
L2C WRITEBACK ACCESS:     561188  HIT:     557433  MISS:       3755
L2C PREFETCH  REQUESTED:   11037347  ISSUED:   10695311  USEFUL:      72107  USELESS:     600105
L2C AVERAGE MISS LATENCY: 37.9335 cycles
LLC TOTAL     ACCESS:    2515431  HIT:    2480824  MISS:      34607
LLC LOAD      ACCESS:     297019  HIT:     293060  MISS:       3959
LLC RFO       ACCESS:      94322  HIT:      79888  MISS:      14434
LLC PREFETCH  ACCESS:    1965572  HIT:    1949569  MISS:      16003
LLC WRITEBACK ACCESS:     158518  HIT:     158307  MISS:        211
LLC PREFETCH  REQUESTED:          0  ISSUED:          0  USEFUL:       4417  USELESS:      22758
LLC AVERAGE MISS LATENCY: 185.517 cycles
Major fault: 0 Minor fault: 2165
CPU 0 L1D next line prefetcher final stats

DRAM Statistics
 CHANNEL 0
 RQ ROW_BUFFER_HIT:      12316  ROW_BUFFER_MISS:      22077
 DBUS_CONGESTED:      23456
 WQ ROW_BUFFER_HIT:       1505  ROW_BUFFER_MISS:      14203  FULL:          0

 AVG_CONGESTED_CYCLE: 6

CPU 0 Branch Prediction Accuracy: 99.822% MPKI: 0.32584 Average ROB Occupancy at Mispredict: 162.302

Branch types
NOT_BRANCH: 40848559 81.6971%
BRANCH_DIRECT_JUMP: 522045 1.04409%
BRANCH_INDIRECT: 204034 0.408068%
BRANCH_CONDITIONAL: 6212961 12.4259%
BRANCH_DIRECT_CALL: 932392 1.86478%
BRANCH_INDIRECT_CALL: 173764 0.347528%
BRANCH_RETURN: 1106152 2.2123%
BRANCH_OTHER: 0 0%

