Initialize SIGNATURE TABLE
ST_SET: 1
ST_WAY: 256
ST_TAG_BIT: 16
ST_TAG_MASK: ffff

Initialize PATTERN TABLE
PT_SET: 512
PT_WAY: 4
SIG_DELTA_BIT: 7
C_SIG_BIT: 4
C_DELTA_BIT: 4

Initialize PREFETCH FILTER
FILTER_SET: 1024

*** ChampSim Multicore Out-of-Order Simulator ***

Warmup Instructions: 50000000
Simulation Instructions: 50000000
Number of CPUs: 1
LLC sets: 2048
LLC ways: 16
Off-chip DRAM Size: 4096 MB Channels: 1 Width: 64-bit Data Rate: 3200 MT/s

CPU 0 runs /home/tongjie/ChampSim-master/ipc1_public/server_019.champsimtrace.xz
CPU 0 L1D next line prefetcher
Heartbeat CPU 0 instructions: 10000002 cycles: 3626646 heartbeat IPC: 2.75737 cumulative IPC: 2.75737 (Simulation time: 0 hr 0 min 28 sec) 
Heartbeat CPU 0 instructions: 20000003 cycles: 7254562 heartbeat IPC: 2.7564 cumulative IPC: 2.75689 (Simulation time: 0 hr 0 min 58 sec) 
Heartbeat CPU 0 instructions: 30000002 cycles: 10881096 heartbeat IPC: 2.75745 cumulative IPC: 2.75708 (Simulation time: 0 hr 1 min 24 sec) 
Heartbeat CPU 0 instructions: 40000002 cycles: 14519844 heartbeat IPC: 2.7482 cumulative IPC: 2.75485 (Simulation time: 0 hr 1 min 51 sec) 
Heartbeat CPU 0 instructions: 50000001 cycles: 18146877 heartbeat IPC: 2.75707 cumulative IPC: 2.7553 (Simulation time: 0 hr 2 min 18 sec) 

Warmup complete CPU 0 instructions: 50000001 cycles: 18146877 (Simulation time: 0 hr 2 min 18 sec) 

Heartbeat CPU 0 instructions: 60000000 cycles: 38381415 heartbeat IPC: 0.494204 cumulative IPC: 0.494204 (Simulation time: 0 hr 2 min 55 sec) 
Heartbeat CPU 0 instructions: 70000002 cycles: 62256154 heartbeat IPC: 0.418853 cumulative IPC: 0.453419 (Simulation time: 0 hr 3 min 32 sec) 
Heartbeat CPU 0 instructions: 80000001 cycles: 83044617 heartbeat IPC: 0.481036 cumulative IPC: 0.462266 (Simulation time: 0 hr 4 min 11 sec) 
Heartbeat CPU 0 instructions: 90000002 cycles: 101054927 heartbeat IPC: 0.555238 cumulative IPC: 0.482462 (Simulation time: 0 hr 4 min 49 sec) 
Heartbeat CPU 0 instructions: 100000002 cycles: 119032458 heartbeat IPC: 0.55625 cumulative IPC: 0.495611 (Simulation time: 0 hr 5 min 25 sec) 
Finished CPU 0 instructions: 50000001 cycles: 100885581 cumulative IPC: 0.495611 (Simulation time: 0 hr 5 min 25 sec) 

ChampSim completed all CPUs

Region of Interest Statistics

CPU 0 cumulative IPC: 0.495611 instructions: 50000001 cycles: 100885581
L1D TOTAL     ACCESS:   18352605  HIT:   16128922  MISS:    2223683
L1D LOAD      ACCESS:    6993512  HIT:    6231517  MISS:     761995
L1D RFO       ACCESS:    5536076  HIT:    4634163  MISS:     901913
L1D PREFETCH  ACCESS:    5823017  HIT:    5263242  MISS:     559775
L1D WRITEBACK ACCESS:          0  HIT:          0  MISS:          0
L1D PREFETCH  REQUESTED:   16501810  ISSUED:   16106517  USEFUL:     609266  USELESS:     699029
L1D AVERAGE MISS LATENCY: 185.005 cycles
L1I TOTAL     ACCESS:   12887353  HIT:   10678036  MISS:    2209317
L1I LOAD      ACCESS:    9841146  HIT:    9641050  MISS:     200096
L1I RFO       ACCESS:          0  HIT:          0  MISS:          0
L1I PREFETCH  ACCESS:    3046207  HIT:    1036986  MISS:    2009221
L1I WRITEBACK ACCESS:          0  HIT:          0  MISS:          0
L1I PREFETCH  REQUESTED:   37983680  ISSUED:   22806110  USEFUL:    4139786  USELESS:     186992
L1I AVERAGE MISS LATENCY: 18.8198 cycles
L2C TOTAL     ACCESS:    6493097  HIT:    4604589  MISS:    1888508
L2C LOAD      ACCESS:     701518  HIT:     351658  MISS:     349860
L2C RFO       ACCESS:     901498  HIT:      18227  MISS:     883271
L2C PREFETCH  ACCESS:    3715453  HIT:    3062302  MISS:     653151
L2C WRITEBACK ACCESS:    1174628  HIT:    1172402  MISS:       2226
L2C PREFETCH  REQUESTED:    9304827  ISSUED:    9152736  USEFUL:      93573  USELESS:    1189178
L2C AVERAGE MISS LATENCY: 222.442 cycles
LLC TOTAL     ACCESS:    4137107  HIT:    2513869  MISS:    1623238
LLC LOAD      ACCESS:     349825  HIT:     182057  MISS:     167768
LLC RFO       ACCESS:     883267  HIT:     114739  MISS:     768528
LLC PREFETCH  ACCESS:    1793423  HIT:    1108792  MISS:     684631
LLC WRITEBACK ACCESS:    1110592  HIT:    1108281  MISS:       2311
LLC PREFETCH  REQUESTED:          0  ISSUED:          0  USEFUL:      88382  USELESS:    1108520
LLC AVERAGE MISS LATENCY: 270.311 cycles
Major fault: 0 Minor fault: 25691
CPU 0 L1D next line prefetcher final stats

DRAM Statistics
 CHANNEL 0
 RQ ROW_BUFFER_HIT:     389641  ROW_BUFFER_MISS:    1230997
 DBUS_CONGESTED:    1586035
 WQ ROW_BUFFER_HIT:     276564  ROW_BUFFER_MISS:     658520  FULL:          0

 AVG_CONGESTED_CYCLE: 6

CPU 0 Branch Prediction Accuracy: 99.2186% MPKI: 1.32192 Average ROB Occupancy at Mispredict: 174.251

Branch types
NOT_BRANCH: 41540785 83.0816%
BRANCH_DIRECT_JUMP: 462384 0.924768%
BRANCH_INDIRECT: 45460 0.09092%
BRANCH_CONDITIONAL: 6209281 12.4186%
BRANCH_DIRECT_CALL: 666241 1.33248%
BRANCH_INDIRECT_CALL: 204728 0.409456%
BRANCH_RETURN: 870978 1.74196%
BRANCH_OTHER: 0 0%

