Initialize SIGNATURE TABLE
ST_SET: 1
ST_WAY: 256
ST_TAG_BIT: 16
ST_TAG_MASK: ffff

Initialize PATTERN TABLE
PT_SET: 512
PT_WAY: 4
SIG_DELTA_BIT: 7
C_SIG_BIT: 4
C_DELTA_BIT: 4

Initialize PREFETCH FILTER
FILTER_SET: 1024

*** ChampSim Multicore Out-of-Order Simulator ***

Warmup Instructions: 50000000
Simulation Instructions: 50000000
Number of CPUs: 1
LLC sets: 2048
LLC ways: 16
Off-chip DRAM Size: 4096 MB Channels: 1 Width: 64-bit Data Rate: 3200 MT/s

CPU 0 runs /home/tongjie/ChampSim-master/ipc1_public/server_025.champsimtrace.xz
CPU 0 L1D next line prefetcher
Heartbeat CPU 0 instructions: 10000003 cycles: 3538169 heartbeat IPC: 2.82632 cumulative IPC: 2.82632 (Simulation time: 0 hr 0 min 28 sec) 
Heartbeat CPU 0 instructions: 20000000 cycles: 7083435 heartbeat IPC: 2.82066 cumulative IPC: 2.82349 (Simulation time: 0 hr 0 min 55 sec) 
Heartbeat CPU 0 instructions: 30000001 cycles: 10621242 heartbeat IPC: 2.82661 cumulative IPC: 2.82453 (Simulation time: 0 hr 1 min 23 sec) 
Heartbeat CPU 0 instructions: 40000003 cycles: 14165132 heartbeat IPC: 2.82176 cumulative IPC: 2.82384 (Simulation time: 0 hr 1 min 53 sec) 
Heartbeat CPU 0 instructions: 50000001 cycles: 17706689 heartbeat IPC: 2.82362 cumulative IPC: 2.82379 (Simulation time: 0 hr 2 min 21 sec) 

Warmup complete CPU 0 instructions: 50000001 cycles: 17706689 (Simulation time: 0 hr 2 min 21 sec) 

Heartbeat CPU 0 instructions: 60000002 cycles: 25426553 heartbeat IPC: 1.29536 cumulative IPC: 1.29536 (Simulation time: 0 hr 2 min 51 sec) 
Heartbeat CPU 0 instructions: 70000000 cycles: 33203641 heartbeat IPC: 1.28583 cumulative IPC: 1.29058 (Simulation time: 0 hr 3 min 19 sec) 
Heartbeat CPU 0 instructions: 80000002 cycles: 40877485 heartbeat IPC: 1.30313 cumulative IPC: 1.29473 (Simulation time: 0 hr 3 min 48 sec) 
Heartbeat CPU 0 instructions: 90000001 cycles: 48021725 heartbeat IPC: 1.39973 cumulative IPC: 1.31948 (Simulation time: 0 hr 4 min 15 sec) 
Heartbeat CPU 0 instructions: 100000003 cycles: 54722691 heartbeat IPC: 1.49232 cumulative IPC: 1.35077 (Simulation time: 0 hr 4 min 41 sec) 
Finished CPU 0 instructions: 50000002 cycles: 37016002 cumulative IPC: 1.35077 (Simulation time: 0 hr 4 min 41 sec) 

ChampSim completed all CPUs

Region of Interest Statistics

CPU 0 cumulative IPC: 1.35077 instructions: 50000002 cycles: 37016002
L1D TOTAL     ACCESS:   20507779  HIT:   19082165  MISS:    1425614
L1D LOAD      ACCESS:    7215899  HIT:    6598116  MISS:     617783
L1D RFO       ACCESS:    6387685  HIT:    6139285  MISS:     248400
L1D PREFETCH  ACCESS:    6904195  HIT:    6344764  MISS:     559431
L1D WRITEBACK ACCESS:          0  HIT:          0  MISS:          0
L1D PREFETCH  REQUESTED:   16773475  ISSUED:   16421686  USEFUL:     301954  USELESS:     914884
L1D AVERAGE MISS LATENCY: 23.0756 cycles
L1I TOTAL     ACCESS:   13622907  HIT:   10102537  MISS:    3520370
L1I LOAD      ACCESS:    9455843  HIT:    8907216  MISS:     548627
L1I RFO       ACCESS:          0  HIT:          0  MISS:          0
L1I PREFETCH  ACCESS:    4167064  HIT:    1195321  MISS:    2971743
L1I WRITEBACK ACCESS:          0  HIT:          0  MISS:          0
L1I PREFETCH  REQUESTED:   55384000  ISSUED:   26551711  USEFUL:    4141369  USELESS:    1970733
L1I AVERAGE MISS LATENCY: 17.5657 cycles
L2C TOTAL     ACCESS:    6758553  HIT:    6117888  MISS:     640665
L2C LOAD      ACCESS:    1055136  HIT:     831531  MISS:     223605
L2C RFO       ACCESS:     246824  HIT:     169746  MISS:      77078
L2C PREFETCH  ACCESS:    4959906  HIT:    4624582  MISS:     335324
L2C WRITEBACK ACCESS:     496687  HIT:     492029  MISS:       4658
L2C PREFETCH  REQUESTED:    9603469  ISSUED:    9331346  USEFUL:      64040  USELESS:     651114
L2C AVERAGE MISS LATENCY: 37.55 cycles
LLC TOTAL     ACCESS:    2072392  HIT:    2043907  MISS:      28485
LLC LOAD      ACCESS:     223470  HIT:     219954  MISS:       3516
LLC RFO       ACCESS:      77077  HIT:      66281  MISS:      10796
LLC PREFETCH  ACCESS:    1641929  HIT:    1627966  MISS:      13963
LLC WRITEBACK ACCESS:     129916  HIT:     129706  MISS:        210
LLC PREFETCH  REQUESTED:          0  ISSUED:          0  USEFUL:       4390  USELESS:      20193
LLC AVERAGE MISS LATENCY: 177.22 cycles
Major fault: 0 Minor fault: 2457
CPU 0 L1D next line prefetcher final stats

DRAM Statistics
 CHANNEL 0
 RQ ROW_BUFFER_HIT:       9304  ROW_BUFFER_MISS:      18965
 DBUS_CONGESTED:      18449
 WQ ROW_BUFFER_HIT:       1235  ROW_BUFFER_MISS:      11399  FULL:          0

 AVG_CONGESTED_CYCLE: 6

CPU 0 Branch Prediction Accuracy: 99.8142% MPKI: 0.34676 Average ROB Occupancy at Mispredict: 169.618

Branch types
NOT_BRANCH: 40668837 81.3377%
BRANCH_DIRECT_JUMP: 531700 1.0634%
BRANCH_INDIRECT: 199025 0.39805%
BRANCH_CONDITIONAL: 6211482 12.423%
BRANCH_DIRECT_CALL: 1010910 2.02182%
BRANCH_INDIRECT_CALL: 183501 0.367002%
BRANCH_RETURN: 1194412 2.38882%
BRANCH_OTHER: 0 0%

