Initialize SIGNATURE TABLE
ST_SET: 1
ST_WAY: 256
ST_TAG_BIT: 16
ST_TAG_MASK: ffff

Initialize PATTERN TABLE
PT_SET: 512
PT_WAY: 4
SIG_DELTA_BIT: 7
C_SIG_BIT: 4
C_DELTA_BIT: 4

Initialize PREFETCH FILTER
FILTER_SET: 1024

*** ChampSim Multicore Out-of-Order Simulator ***

Warmup Instructions: 50000000
Simulation Instructions: 50000000
Number of CPUs: 1
LLC sets: 2048
LLC ways: 16
Off-chip DRAM Size: 4096 MB Channels: 1 Width: 64-bit Data Rate: 3200 MT/s

CPU 0 runs /home/tongjie/ChampSim-master/ipc1_public/server_010.champsimtrace.xz
CPU 0 L1D next line prefetcher
Heartbeat CPU 0 instructions: 10000000 cycles: 3201473 heartbeat IPC: 3.12356 cumulative IPC: 3.12356 (Simulation time: 0 hr 0 min 26 sec) 
Heartbeat CPU 0 instructions: 20000002 cycles: 6399381 heartbeat IPC: 3.12704 cumulative IPC: 3.1253 (Simulation time: 0 hr 0 min 53 sec) 
Heartbeat CPU 0 instructions: 30000001 cycles: 9600177 heartbeat IPC: 3.12422 cumulative IPC: 3.12494 (Simulation time: 0 hr 1 min 19 sec) 
Heartbeat CPU 0 instructions: 40000000 cycles: 12797462 heartbeat IPC: 3.12765 cumulative IPC: 3.12562 (Simulation time: 0 hr 1 min 46 sec) 
Heartbeat CPU 0 instructions: 50000003 cycles: 16000430 heartbeat IPC: 3.12211 cumulative IPC: 3.12492 (Simulation time: 0 hr 2 min 11 sec) 

Warmup complete CPU 0 instructions: 50000003 cycles: 16000430 (Simulation time: 0 hr 2 min 11 sec) 

Heartbeat CPU 0 instructions: 60000001 cycles: 24912479 heartbeat IPC: 1.12208 cumulative IPC: 1.12208 (Simulation time: 0 hr 2 min 35 sec) 
Heartbeat CPU 0 instructions: 70000000 cycles: 34050517 heartbeat IPC: 1.09433 cumulative IPC: 1.10803 (Simulation time: 0 hr 2 min 58 sec) 
Heartbeat CPU 0 instructions: 80000000 cycles: 43342189 heartbeat IPC: 1.07623 cumulative IPC: 1.09722 (Simulation time: 0 hr 3 min 25 sec) 
Heartbeat CPU 0 instructions: 90000002 cycles: 52225177 heartbeat IPC: 1.12575 cumulative IPC: 1.10422 (Simulation time: 0 hr 3 min 50 sec) 
Heartbeat CPU 0 instructions: 100000003 cycles: 73658515 heartbeat IPC: 0.466563 cumulative IPC: 0.867181 (Simulation time: 0 hr 4 min 29 sec) 
Finished CPU 0 instructions: 50000000 cycles: 57658085 cumulative IPC: 0.867181 (Simulation time: 0 hr 4 min 29 sec) 

ChampSim completed all CPUs

Region of Interest Statistics

CPU 0 cumulative IPC: 0.867181 instructions: 50000000 cycles: 57658085
L1D TOTAL     ACCESS:   20483363  HIT:   17257815  MISS:    3225548
L1D LOAD      ACCESS:    7985896  HIT:    6397126  MISS:    1588770
L1D RFO       ACCESS:    4729754  HIT:    4635184  MISS:      94570
L1D PREFETCH  ACCESS:    7767713  HIT:    6225505  MISS:    1542208
L1D WRITEBACK ACCESS:          0  HIT:          0  MISS:          0
L1D PREFETCH  REQUESTED:   16707059  ISSUED:   16459319  USEFUL:     268964  USELESS:    1766221
L1D AVERAGE MISS LATENCY: 22.2327 cycles
L1I TOTAL     ACCESS:   11488690  HIT:    9815305  MISS:    1673385
L1I LOAD      ACCESS:    9878973  HIT:    9270268  MISS:     608705
L1I RFO       ACCESS:          0  HIT:          0  MISS:          0
L1I PREFETCH  ACCESS:    1609717  HIT:     545037  MISS:    1064680
L1I WRITEBACK ACCESS:          0  HIT:          0  MISS:          0
L1I PREFETCH  REQUESTED:   21206912  ISSUED:   12528416  USEFUL:    1304437  USELESS:     893355
L1I AVERAGE MISS LATENCY: 27.547 cycles
L2C TOTAL     ACCESS:    6450126  HIT:    5376019  MISS:    1074107
L2C LOAD      ACCESS:    2149464  HIT:    1607825  MISS:     541639
L2C RFO       ACCESS:      93491  HIT:      49747  MISS:      43744
L2C PREFETCH  ACCESS:    3941808  HIT:    3454149  MISS:     487659
L2C WRITEBACK ACCESS:     265363  HIT:     264298  MISS:       1065
L2C PREFETCH  REQUESTED:   10229596  ISSUED:    9821202  USEFUL:     105232  USELESS:     954575
L2C AVERAGE MISS LATENCY: 41.5427 cycles
LLC TOTAL     ACCESS:    2646402  HIT:    2517572  MISS:     128830
LLC LOAD      ACCESS:     533940  HIT:     508073  MISS:      25867
LLC RFO       ACCESS:      43737  HIT:      35702  MISS:       8035
LLC PREFETCH  ACCESS:    1920537  HIT:    1825895  MISS:      94642
LLC WRITEBACK ACCESS:     148188  HIT:     147902  MISS:        286
LLC PREFETCH  REQUESTED:          0  ISSUED:          0  USEFUL:      36995  USELESS:     153876
LLC AVERAGE MISS LATENCY: 165.444 cycles
Major fault: 0 Minor fault: 5593
CPU 0 L1D next line prefetcher final stats

DRAM Statistics
 CHANNEL 0
 RQ ROW_BUFFER_HIT:      20993  ROW_BUFFER_MISS:     107534
 DBUS_CONGESTED:      53473
 WQ ROW_BUFFER_HIT:       9063  ROW_BUFFER_MISS:      44044  FULL:          0

 AVG_CONGESTED_CYCLE: 5

CPU 0 Branch Prediction Accuracy: 99.5528% MPKI: 0.89798 Average ROB Occupancy at Mispredict: 95.7747

Branch types
NOT_BRANCH: 39958786 79.9176%
BRANCH_DIRECT_JUMP: 449946 0.899892%
BRANCH_INDIRECT: 140210 0.28042%
BRANCH_CONDITIONAL: 7679676 15.3594%
BRANCH_DIRECT_CALL: 701578 1.40316%
BRANCH_INDIRECT_CALL: 168971 0.337942%
BRANCH_RETURN: 900560 1.80112%
BRANCH_OTHER: 0 0%

