Initialize SIGNATURE TABLE
ST_SET: 1
ST_WAY: 256
ST_TAG_BIT: 16
ST_TAG_MASK: ffff

Initialize PATTERN TABLE
PT_SET: 512
PT_WAY: 4
SIG_DELTA_BIT: 7
C_SIG_BIT: 4
C_DELTA_BIT: 4

Initialize PREFETCH FILTER
FILTER_SET: 1024

*** ChampSim Multicore Out-of-Order Simulator ***

Warmup Instructions: 50000000
Simulation Instructions: 50000000
Number of CPUs: 1
LLC sets: 2048
LLC ways: 16
Off-chip DRAM Size: 4096 MB Channels: 1 Width: 64-bit Data Rate: 3200 MT/s

CPU 0 runs /home/tongjie/ChampSim-master/ipc1_public/server_027.champsimtrace.xz
CPU 0 L1D next line prefetcher
Heartbeat CPU 0 instructions: 10000001 cycles: 3535379 heartbeat IPC: 2.82855 cumulative IPC: 2.82855 (Simulation time: 0 hr 0 min 28 sec) 
Heartbeat CPU 0 instructions: 20000001 cycles: 7075906 heartbeat IPC: 2.82444 cumulative IPC: 2.82649 (Simulation time: 0 hr 0 min 56 sec) 
Heartbeat CPU 0 instructions: 30000002 cycles: 10611256 heartbeat IPC: 2.82857 cumulative IPC: 2.82719 (Simulation time: 0 hr 1 min 24 sec) 
Heartbeat CPU 0 instructions: 40000000 cycles: 14151959 heartbeat IPC: 2.8243 cumulative IPC: 2.82646 (Simulation time: 0 hr 1 min 54 sec) 
Heartbeat CPU 0 instructions: 50000001 cycles: 17687206 heartbeat IPC: 2.82866 cumulative IPC: 2.8269 (Simulation time: 0 hr 2 min 22 sec) 

Warmup complete CPU 0 instructions: 50000001 cycles: 17687206 (Simulation time: 0 hr 2 min 22 sec) 

Heartbeat CPU 0 instructions: 60000002 cycles: 25413227 heartbeat IPC: 1.29433 cumulative IPC: 1.29433 (Simulation time: 0 hr 2 min 52 sec) 
Heartbeat CPU 0 instructions: 70000003 cycles: 33074771 heartbeat IPC: 1.30522 cumulative IPC: 1.29975 (Simulation time: 0 hr 3 min 20 sec) 
Heartbeat CPU 0 instructions: 80000002 cycles: 40722729 heartbeat IPC: 1.30754 cumulative IPC: 1.30234 (Simulation time: 0 hr 3 min 49 sec) 
Heartbeat CPU 0 instructions: 90000001 cycles: 48475275 heartbeat IPC: 1.2899 cumulative IPC: 1.2992 (Simulation time: 0 hr 4 min 18 sec) 
Heartbeat CPU 0 instructions: 100000002 cycles: 56097064 heartbeat IPC: 1.31203 cumulative IPC: 1.30175 (Simulation time: 0 hr 4 min 45 sec) 
Finished CPU 0 instructions: 50000001 cycles: 38409858 cumulative IPC: 1.30175 (Simulation time: 0 hr 4 min 45 sec) 

ChampSim completed all CPUs

Region of Interest Statistics

CPU 0 cumulative IPC: 1.30175 instructions: 50000001 cycles: 38409858
L1D TOTAL     ACCESS:   20644238  HIT:   19042227  MISS:    1602011
L1D LOAD      ACCESS:    7310953  HIT:    6620526  MISS:     690427
L1D RFO       ACCESS:    6306374  HIT:    6019623  MISS:     286751
L1D PREFETCH  ACCESS:    7026911  HIT:    6402078  MISS:     624833
L1D WRITEBACK ACCESS:          0  HIT:          0  MISS:          0
L1D PREFETCH  REQUESTED:   16870460  ISSUED:   16576306  USEFUL:     321375  USELESS:     948453
L1D AVERAGE MISS LATENCY: 23.6199 cycles
L1I TOTAL     ACCESS:   14755890  HIT:   10340553  MISS:    4415337
L1I LOAD      ACCESS:    9387878  HIT:    8712880  MISS:     674998
L1I RFO       ACCESS:          0  HIT:          0  MISS:          0
L1I PREFETCH  ACCESS:    5368012  HIT:    1627673  MISS:    3740339
L1I WRITEBACK ACCESS:          0  HIT:          0  MISS:          0
L1I PREFETCH  REQUESTED:   65447104  ISSUED:   31118806  USEFUL:    4334535  USELESS:    2648320
L1I AVERAGE MISS LATENCY: 17.6254 cycles
L2C TOTAL     ACCESS:    8018657  HIT:    7193359  MISS:     825298
L2C LOAD      ACCESS:    1223628  HIT:     967593  MISS:     256035
L2C RFO       ACCESS:     284065  HIT:     196175  MISS:      87890
L2C PREFETCH  ACCESS:    5951671  HIT:    5477620  MISS:     474051
L2C WRITEBACK ACCESS:     559293  HIT:     551971  MISS:       7322
L2C PREFETCH  REQUESTED:    9841055  ISSUED:    9526784  USEFUL:      84836  USELESS:     841443
L2C AVERAGE MISS LATENCY: 37.1932 cycles
LLC TOTAL     ACCESS:    2392438  HIT:    2360234  MISS:      32204
LLC LOAD      ACCESS:     255860  HIT:     252126  MISS:       3734
LLC RFO       ACCESS:      87840  HIT:      73876  MISS:      13964
LLC PREFETCH  ACCESS:    1898665  HIT:    1884346  MISS:      14319
LLC WRITEBACK ACCESS:     150073  HIT:     149886  MISS:        187
LLC PREFETCH  REQUESTED:          0  ISSUED:          0  USEFUL:       4587  USELESS:      20122
LLC AVERAGE MISS LATENCY: 181.967 cycles
Major fault: 0 Minor fault: 2477
CPU 0 L1D next line prefetcher final stats

DRAM Statistics
 CHANNEL 0
 RQ ROW_BUFFER_HIT:      10926  ROW_BUFFER_MISS:      21089
 DBUS_CONGESTED:      21806
 WQ ROW_BUFFER_HIT:       1442  ROW_BUFFER_MISS:      14024  FULL:          0

 AVG_CONGESTED_CYCLE: 6

CPU 0 Branch Prediction Accuracy: 99.8082% MPKI: 0.35064 Average ROB Occupancy at Mispredict: 158.782

Branch types
NOT_BRANCH: 40857498 81.715%
BRANCH_DIRECT_JUMP: 526635 1.05327%
BRANCH_INDIRECT: 205902 0.411804%
BRANCH_CONDITIONAL: 6184048 12.3681%
BRANCH_DIRECT_CALL: 938468 1.87694%
BRANCH_INDIRECT_CALL: 174486 0.348972%
BRANCH_RETURN: 1112959 2.22592%
BRANCH_OTHER: 0 0%

