Initialize SIGNATURE TABLE
ST_SET: 1
ST_WAY: 256
ST_TAG_BIT: 16
ST_TAG_MASK: ffff

Initialize PATTERN TABLE
PT_SET: 512
PT_WAY: 4
SIG_DELTA_BIT: 7
C_SIG_BIT: 4
C_DELTA_BIT: 4

Initialize PREFETCH FILTER
FILTER_SET: 1024

*** ChampSim Multicore Out-of-Order Simulator ***

Warmup Instructions: 50000000
Simulation Instructions: 50000000
Number of CPUs: 1
LLC sets: 2048
LLC ways: 16
Off-chip DRAM Size: 4096 MB Channels: 1 Width: 64-bit Data Rate: 3200 MT/s

CPU 0 runs /home/tongjie/ChampSim-master/ipc1_public/server_023.champsimtrace.xz
CPU 0 L1D next line prefetcher
Heartbeat CPU 0 instructions: 10000000 cycles: 3503728 heartbeat IPC: 2.8541 cumulative IPC: 2.8541 (Simulation time: 0 hr 0 min 28 sec) 
Heartbeat CPU 0 instructions: 20000000 cycles: 7006999 heartbeat IPC: 2.85448 cumulative IPC: 2.85429 (Simulation time: 0 hr 0 min 55 sec) 
Heartbeat CPU 0 instructions: 30000001 cycles: 10503549 heartbeat IPC: 2.85996 cumulative IPC: 2.85618 (Simulation time: 0 hr 1 min 24 sec) 
Heartbeat CPU 0 instructions: 40000003 cycles: 14006262 heartbeat IPC: 2.85493 cumulative IPC: 2.85587 (Simulation time: 0 hr 1 min 52 sec) 
Heartbeat CPU 0 instructions: 50000001 cycles: 17510056 heartbeat IPC: 2.85405 cumulative IPC: 2.8555 (Simulation time: 0 hr 2 min 19 sec) 

Warmup complete CPU 0 instructions: 50000001 cycles: 17510056 (Simulation time: 0 hr 2 min 19 sec) 

Heartbeat CPU 0 instructions: 60000002 cycles: 25082629 heartbeat IPC: 1.32056 cumulative IPC: 1.32056 (Simulation time: 0 hr 2 min 46 sec) 
Heartbeat CPU 0 instructions: 70000000 cycles: 32829855 heartbeat IPC: 1.29078 cumulative IPC: 1.3055 (Simulation time: 0 hr 3 min 13 sec) 
Heartbeat CPU 0 instructions: 80000000 cycles: 40470797 heartbeat IPC: 1.30874 cumulative IPC: 1.30658 (Simulation time: 0 hr 3 min 39 sec) 
Heartbeat CPU 0 instructions: 90000000 cycles: 48005928 heartbeat IPC: 1.32712 cumulative IPC: 1.31165 (Simulation time: 0 hr 4 min 3 sec) 
Heartbeat CPU 0 instructions: 100000003 cycles: 55636966 heartbeat IPC: 1.31044 cumulative IPC: 1.31141 (Simulation time: 0 hr 4 min 30 sec) 
Finished CPU 0 instructions: 50000002 cycles: 38126910 cumulative IPC: 1.31141 (Simulation time: 0 hr 4 min 30 sec) 

ChampSim completed all CPUs

Region of Interest Statistics

CPU 0 cumulative IPC: 1.31141 instructions: 50000002 cycles: 38126910
L1D TOTAL     ACCESS:   20019189  HIT:   18551926  MISS:    1467263
L1D LOAD      ACCESS:    7171209  HIT:    6511374  MISS:     659835
L1D RFO       ACCESS:    5997912  HIT:    5735891  MISS:     262021
L1D PREFETCH  ACCESS:    6850068  HIT:    6304661  MISS:     545407
L1D WRITEBACK ACCESS:          0  HIT:          0  MISS:          0
L1D PREFETCH  REQUESTED:   16675254  ISSUED:   16375636  USEFUL:     301225  USELESS:     849716
L1D AVERAGE MISS LATENCY: 24.168 cycles
L1I TOTAL     ACCESS:   13802245  HIT:   10100510  MISS:    3701735
L1I LOAD      ACCESS:    9400904  HIT:    8808555  MISS:     592349
L1I RFO       ACCESS:          0  HIT:          0  MISS:          0
L1I PREFETCH  ACCESS:    4401341  HIT:    1291955  MISS:    3109386
L1I WRITEBACK ACCESS:          0  HIT:          0  MISS:          0
L1I PREFETCH  REQUESTED:   56041600  ISSUED:   26102743  USEFUL:    3841942  USELESS:    2160808
L1I AVERAGE MISS LATENCY: 17.2361 cycles
L2C TOTAL     ACCESS:    6974253  HIT:    6326549  MISS:     647704
L2C LOAD      ACCESS:    1102645  HIT:     885367  MISS:     217278
L2C RFO       ACCESS:     259766  HIT:     170402  MISS:      89364
L2C PREFETCH  ACCESS:    5112485  HIT:    4773941  MISS:     338544
L2C WRITEBACK ACCESS:     499357  HIT:     496839  MISS:       2518
L2C PREFETCH  REQUESTED:    9483547  ISSUED:    9095517  USEFUL:      70478  USELESS:     620966
L2C AVERAGE MISS LATENCY: 41.523 cycles
LLC TOTAL     ACCESS:    2012978  HIT:    1965804  MISS:      47174
LLC LOAD      ACCESS:     217102  HIT:     210490  MISS:       6612
LLC RFO       ACCESS:      89343  HIT:      71354  MISS:      17989
LLC PREFETCH  ACCESS:    1567064  HIT:    1544735  MISS:      22329
LLC WRITEBACK ACCESS:     139469  HIT:     139225  MISS:        244
LLC PREFETCH  REQUESTED:          0  ISSUED:          0  USEFUL:       6586  USELESS:      35131
LLC AVERAGE MISS LATENCY: 181.408 cycles
Major fault: 0 Minor fault: 2766
CPU 0 L1D next line prefetcher final stats

DRAM Statistics
 CHANNEL 0
 RQ ROW_BUFFER_HIT:      14680  ROW_BUFFER_MISS:      32234
 DBUS_CONGESTED:      30387
 WQ ROW_BUFFER_HIT:       2402  ROW_BUFFER_MISS:      18502  FULL:          0

 AVG_CONGESTED_CYCLE: 6

CPU 0 Branch Prediction Accuracy: 99.6798% MPKI: 0.58608 Average ROB Occupancy at Mispredict: 123.167

Branch types
NOT_BRANCH: 40848292 81.6966%
BRANCH_DIRECT_JUMP: 548371 1.09674%
BRANCH_INDIRECT: 189802 0.379604%
BRANCH_CONDITIONAL: 6372765 12.7455%
BRANCH_DIRECT_CALL: 862207 1.72441%
BRANCH_INDIRECT_CALL: 158149 0.316298%
BRANCH_RETURN: 1020345 2.04069%
BRANCH_OTHER: 0 0%

