Initialize SIGNATURE TABLE
ST_SET: 1
ST_WAY: 256
ST_TAG_BIT: 16
ST_TAG_MASK: ffff

Initialize PATTERN TABLE
PT_SET: 512
PT_WAY: 4
SIG_DELTA_BIT: 7
C_SIG_BIT: 4
C_DELTA_BIT: 4

Initialize PREFETCH FILTER
FILTER_SET: 1024

*** ChampSim Multicore Out-of-Order Simulator ***

Warmup Instructions: 50000000
Simulation Instructions: 50000000
Number of CPUs: 1
LLC sets: 2048
LLC ways: 16
Off-chip DRAM Size: 4096 MB Channels: 1 Width: 64-bit Data Rate: 3200 MT/s

CPU 0 runs /home/tongjie/ChampSim-master/ipc1_public/server_037.champsimtrace.xz
CPU 0 L1D next line prefetcher
Heartbeat CPU 0 instructions: 10000001 cycles: 3323138 heartbeat IPC: 3.0092 cumulative IPC: 3.0092 (Simulation time: 0 hr 0 min 24 sec) 
Heartbeat CPU 0 instructions: 20000002 cycles: 6643998 heartbeat IPC: 3.01127 cumulative IPC: 3.01024 (Simulation time: 0 hr 0 min 50 sec) 
Heartbeat CPU 0 instructions: 30000003 cycles: 10012322 heartbeat IPC: 2.96884 cumulative IPC: 2.99631 (Simulation time: 0 hr 1 min 16 sec) 
Heartbeat CPU 0 instructions: 40000000 cycles: 13334532 heartbeat IPC: 3.01004 cumulative IPC: 2.99973 (Simulation time: 0 hr 1 min 41 sec) 
Heartbeat CPU 0 instructions: 50000003 cycles: 16655969 heartbeat IPC: 3.01075 cumulative IPC: 3.00193 (Simulation time: 0 hr 2 min 5 sec) 

Warmup complete CPU 0 instructions: 50000003 cycles: 16655969 (Simulation time: 0 hr 2 min 5 sec) 

Heartbeat CPU 0 instructions: 60000001 cycles: 23132009 heartbeat IPC: 1.54415 cumulative IPC: 1.54415 (Simulation time: 0 hr 2 min 32 sec) 
Heartbeat CPU 0 instructions: 70000000 cycles: 29727151 heartbeat IPC: 1.51627 cumulative IPC: 1.53008 (Simulation time: 0 hr 3 min 0 sec) 
Heartbeat CPU 0 instructions: 80000000 cycles: 36180342 heartbeat IPC: 1.54962 cumulative IPC: 1.53654 (Simulation time: 0 hr 3 min 26 sec) 
Heartbeat CPU 0 instructions: 90000002 cycles: 42662145 heartbeat IPC: 1.54278 cumulative IPC: 1.5381 (Simulation time: 0 hr 3 min 52 sec) 
*** Reached end of trace for Core: 0 Repeating trace: /home/tongjie/ChampSim-master/ipc1_public/server_037.champsimtrace.xz
Heartbeat CPU 0 instructions: 100000000 cycles: 49167042 heartbeat IPC: 1.5373 cumulative IPC: 1.53794 (Simulation time: 0 hr 4 min 17 sec) 
Finished CPU 0 instructions: 50000001 cycles: 32511074 cumulative IPC: 1.53794 (Simulation time: 0 hr 4 min 17 sec) 

ChampSim completed all CPUs

Region of Interest Statistics

CPU 0 cumulative IPC: 1.53794 instructions: 50000001 cycles: 32511074
L1D TOTAL     ACCESS:   18752315  HIT:   17774318  MISS:     977997
L1D LOAD      ACCESS:    6390253  HIT:    5898896  MISS:     491357
L1D RFO       ACCESS:    6207642  HIT:    6143545  MISS:      64097
L1D PREFETCH  ACCESS:    6154420  HIT:    5731877  MISS:     422543
L1D WRITEBACK ACCESS:          0  HIT:          0  MISS:          0
L1D PREFETCH  REQUESTED:   15452773  ISSUED:   15035801  USEFUL:     235812  USELESS:     611077
L1D AVERAGE MISS LATENCY: 28.8421 cycles
L1I TOTAL     ACCESS:   14131703  HIT:    9960021  MISS:    4171682
L1I LOAD      ACCESS:    9292283  HIT:    8964632  MISS:     327651
L1I RFO       ACCESS:          0  HIT:          0  MISS:          0
L1I PREFETCH  ACCESS:    4839420  HIT:     995389  MISS:    3844031
L1I WRITEBACK ACCESS:          0  HIT:          0  MISS:          0
L1I PREFETCH  REQUESTED:   64113408  ISSUED:   30684592  USEFUL:    7372081  USELESS:     230089
L1I AVERAGE MISS LATENCY: 15.1192 cycles
L2C TOTAL     ACCESS:    7392440  HIT:    7093000  MISS:     299440
L2C LOAD      ACCESS:     720190  HIT:     577485  MISS:     142705
L2C RFO       ACCESS:      63900  HIT:      37182  MISS:      26718
L2C PREFETCH  ACCESS:    6318889  HIT:    6189764  MISS:     129125
L2C WRITEBACK ACCESS:     289461  HIT:     288569  MISS:        892
L2C PREFETCH  REQUESTED:   11621529  ISSUED:   11455346  USEFUL:      12232  USELESS:     243675
L2C AVERAGE MISS LATENCY: 46.1734 cycles
LLC TOTAL     ACCESS:    1602144  HIT:    1549317  MISS:      52827
LLC LOAD      ACCESS:     142674  HIT:     129099  MISS:      13575
LLC RFO       ACCESS:      26717  HIT:      21918  MISS:       4799
LLC PREFETCH  ACCESS:    1299389  HIT:    1265509  MISS:      33880
LLC WRITEBACK ACCESS:     133364  HIT:     132791  MISS:        573
LLC PREFETCH  REQUESTED:          0  ISSUED:          0  USEFUL:       7902  USELESS:      49917
LLC AVERAGE MISS LATENCY: 164.286 cycles
Major fault: 0 Minor fault: 5652
CPU 0 L1D next line prefetcher final stats

DRAM Statistics
 CHANNEL 0
 RQ ROW_BUFFER_HIT:       8505  ROW_BUFFER_MISS:      43748
 DBUS_CONGESTED:      22325
 WQ ROW_BUFFER_HIT:       1307  ROW_BUFFER_MISS:      10572  FULL:          0

 AVG_CONGESTED_CYCLE: 5

CPU 0 Branch Prediction Accuracy: 99.913% MPKI: 0.15656 Average ROB Occupancy at Mispredict: 207.913

Branch types
NOT_BRANCH: 41001720 82.0034%
BRANCH_DIRECT_JUMP: 541941 1.08388%
BRANCH_INDIRECT: 59716 0.119432%
BRANCH_CONDITIONAL: 5916853 11.8337%
BRANCH_DIRECT_CALL: 1005465 2.01093%
BRANCH_INDIRECT_CALL: 234433 0.468866%
BRANCH_RETURN: 1239877 2.47975%
BRANCH_OTHER: 0 0%

