Initialize SIGNATURE TABLE
ST_SET: 1
ST_WAY: 256
ST_TAG_BIT: 16
ST_TAG_MASK: ffff

Initialize PATTERN TABLE
PT_SET: 512
PT_WAY: 4
SIG_DELTA_BIT: 7
C_SIG_BIT: 4
C_DELTA_BIT: 4

Initialize PREFETCH FILTER
FILTER_SET: 1024

*** ChampSim Multicore Out-of-Order Simulator ***

Warmup Instructions: 50000000
Simulation Instructions: 50000000
Number of CPUs: 1
LLC sets: 2048
LLC ways: 16
Off-chip DRAM Size: 4096 MB Channels: 1 Width: 64-bit Data Rate: 3200 MT/s

CPU 0 runs /home/tongjie/ChampSim-master/ipc1_public/spec_perlbench_001.champsimtrace.xz
CPU 0 L1D next line prefetcher
Heartbeat CPU 0 instructions: 10000000 cycles: 3277448 heartbeat IPC: 3.05115 cumulative IPC: 3.05115 (Simulation time: 0 hr 0 min 23 sec) 
Heartbeat CPU 0 instructions: 20000000 cycles: 6545456 heartbeat IPC: 3.05997 cumulative IPC: 3.05555 (Simulation time: 0 hr 0 min 51 sec) 
Heartbeat CPU 0 instructions: 30000002 cycles: 9867831 heartbeat IPC: 3.0099 cumulative IPC: 3.04018 (Simulation time: 0 hr 1 min 22 sec) 
Heartbeat CPU 0 instructions: 40000002 cycles: 13125112 heartbeat IPC: 3.07005 cumulative IPC: 3.04759 (Simulation time: 0 hr 1 min 46 sec) 
Heartbeat CPU 0 instructions: 50000001 cycles: 16399114 heartbeat IPC: 3.05437 cumulative IPC: 3.04895 (Simulation time: 0 hr 2 min 10 sec) 

Warmup complete CPU 0 instructions: 50000001 cycles: 16399114 (Simulation time: 0 hr 2 min 10 sec) 

Heartbeat CPU 0 instructions: 60000001 cycles: 25130996 heartbeat IPC: 1.14523 cumulative IPC: 1.14523 (Simulation time: 0 hr 2 min 34 sec) 
Heartbeat CPU 0 instructions: 70000000 cycles: 33864729 heartbeat IPC: 1.14499 cumulative IPC: 1.14511 (Simulation time: 0 hr 2 min 58 sec) 
Heartbeat CPU 0 instructions: 80000000 cycles: 42575210 heartbeat IPC: 1.14804 cumulative IPC: 1.14608 (Simulation time: 0 hr 3 min 19 sec) 
Heartbeat CPU 0 instructions: 90000000 cycles: 48440378 heartbeat IPC: 1.70498 cumulative IPC: 1.24839 (Simulation time: 0 hr 3 min 35 sec) 
Heartbeat CPU 0 instructions: 100000002 cycles: 54467702 heartbeat IPC: 1.65911 cumulative IPC: 1.31342 (Simulation time: 0 hr 3 min 49 sec) 
Finished CPU 0 instructions: 50000001 cycles: 38068588 cumulative IPC: 1.31342 (Simulation time: 0 hr 3 min 49 sec) 

ChampSim completed all CPUs

Region of Interest Statistics

CPU 0 cumulative IPC: 1.31342 instructions: 50000001 cycles: 38068588
L1D TOTAL     ACCESS:   20916975  HIT:   20501836  MISS:     415139
L1D LOAD      ACCESS:    7281929  HIT:    7068352  MISS:     213577
L1D RFO       ACCESS:    6547107  HIT:    6528612  MISS:      18495
L1D PREFETCH  ACCESS:    7087939  HIT:    6904872  MISS:     183067
L1D WRITEBACK ACCESS:          0  HIT:          0  MISS:          0
L1D PREFETCH  REQUESTED:   16228835  ISSUED:   15935507  USEFUL:     121237  USELESS:     277715
L1D AVERAGE MISS LATENCY: 58.7238 cycles
L1I TOTAL     ACCESS:   12175588  HIT:   10537193  MISS:    1638395
L1I LOAD      ACCESS:    9217116  HIT:    8978087  MISS:     239029
L1I RFO       ACCESS:          0  HIT:          0  MISS:          0
L1I PREFETCH  ACCESS:    2958472  HIT:    1559106  MISS:    1399366
L1I WRITEBACK ACCESS:          0  HIT:          0  MISS:          0
L1I PREFETCH  REQUESTED:   34849792  ISSUED:   13989178  USEFUL:     820275  USELESS:    1831003
L1I AVERAGE MISS LATENCY: 15.574 cycles
L2C TOTAL     ACCESS:    2802017  HIT:    2636612  MISS:     165405
L2C LOAD      ACCESS:     422504  HIT:     333687  MISS:      88817
L2C RFO       ACCESS:      18275  HIT:      12728  MISS:       5547
L2C PREFETCH  ACCESS:    2282279  HIT:    2211723  MISS:      70556
L2C WRITEBACK ACCESS:      78959  HIT:      78474  MISS:        485
L2C PREFETCH  REQUESTED:    2961374  ISSUED:    2934012  USEFUL:      11161  USELESS:     131110
L2C AVERAGE MISS LATENCY: 119.201 cycles
LLC TOTAL     ACCESS:     506633  HIT:     369352  MISS:     137281
LLC LOAD      ACCESS:      88807  HIT:      37765  MISS:      51042
LLC RFO       ACCESS:       5547  HIT:       2505  MISS:       3042
LLC PREFETCH  ACCESS:     386224  HIT:     303445  MISS:      82779
LLC WRITEBACK ACCESS:      26055  HIT:      25637  MISS:        418
LLC PREFETCH  REQUESTED:          0  ISSUED:          0  USEFUL:      26062  USELESS:     123824
LLC AVERAGE MISS LATENCY: 157.71 cycles
Major fault: 0 Minor fault: 6364
CPU 0 L1D next line prefetcher final stats

DRAM Statistics
 CHANNEL 0
 RQ ROW_BUFFER_HIT:      31172  ROW_BUFFER_MISS:     105691
 DBUS_CONGESTED:      53664
 WQ ROW_BUFFER_HIT:       4419  ROW_BUFFER_MISS:      12767  FULL:          0

 AVG_CONGESTED_CYCLE: 4

CPU 0 Branch Prediction Accuracy: 98.7418% MPKI: 2.47758 Average ROB Occupancy at Mispredict: 70.4161

Branch types
NOT_BRANCH: 40154109 80.3082%
BRANCH_DIRECT_JUMP: 817094 1.63419%
BRANCH_INDIRECT: 303788 0.607576%
BRANCH_CONDITIONAL: 7492104 14.9842%
BRANCH_DIRECT_CALL: 471777 0.943554%
BRANCH_INDIRECT_CALL: 144546 0.289092%
BRANCH_RETURN: 616324 1.23265%
BRANCH_OTHER: 0 0%

