Initialize SIGNATURE TABLE
ST_SET: 1
ST_WAY: 256
ST_TAG_BIT: 16
ST_TAG_MASK: ffff

Initialize PATTERN TABLE
PT_SET: 512
PT_WAY: 4
SIG_DELTA_BIT: 7
C_SIG_BIT: 4
C_DELTA_BIT: 4

Initialize PREFETCH FILTER
FILTER_SET: 1024

*** ChampSim Multicore Out-of-Order Simulator ***

Warmup Instructions: 50000000
Simulation Instructions: 50000000
Number of CPUs: 1
LLC sets: 2048
LLC ways: 16
Off-chip DRAM Size: 4096 MB Channels: 1 Width: 64-bit Data Rate: 3200 MT/s

CPU 0 runs /home/tongjie/ChampSim-master/ipc1_public/spec_gobmk_002.champsimtrace.xz
CPU 0 L1D next line prefetcher
Heartbeat CPU 0 instructions: 10000001 cycles: 3287572 heartbeat IPC: 3.04176 cumulative IPC: 3.04176 (Simulation time: 0 hr 0 min 22 sec) 
Heartbeat CPU 0 instructions: 20000000 cycles: 6619241 heartbeat IPC: 3.0015 cumulative IPC: 3.02149 (Simulation time: 0 hr 0 min 47 sec) 
Heartbeat CPU 0 instructions: 30000000 cycles: 9957290 heartbeat IPC: 2.99576 cumulative IPC: 3.01287 (Simulation time: 0 hr 1 min 12 sec) 
Heartbeat CPU 0 instructions: 40000000 cycles: 13266878 heartbeat IPC: 3.02152 cumulative IPC: 3.01503 (Simulation time: 0 hr 1 min 40 sec) 
Heartbeat CPU 0 instructions: 50000003 cycles: 16530543 heartbeat IPC: 3.06404 cumulative IPC: 3.0247 (Simulation time: 0 hr 2 min 6 sec) 

Warmup complete CPU 0 instructions: 50000003 cycles: 16530543 (Simulation time: 0 hr 2 min 6 sec) 

Heartbeat CPU 0 instructions: 60000002 cycles: 24802117 heartbeat IPC: 1.20896 cumulative IPC: 1.20896 (Simulation time: 0 hr 2 min 27 sec) 
Heartbeat CPU 0 instructions: 70000001 cycles: 33001586 heartbeat IPC: 1.21959 cumulative IPC: 1.21425 (Simulation time: 0 hr 2 min 46 sec) 
Heartbeat CPU 0 instructions: 80000000 cycles: 41066125 heartbeat IPC: 1.24 cumulative IPC: 1.22271 (Simulation time: 0 hr 3 min 4 sec) 
Heartbeat CPU 0 instructions: 90000001 cycles: 49356587 heartbeat IPC: 1.20621 cumulative IPC: 1.21854 (Simulation time: 0 hr 3 min 21 sec) 
Heartbeat CPU 0 instructions: 100000003 cycles: 57994226 heartbeat IPC: 1.15772 cumulative IPC: 1.20587 (Simulation time: 0 hr 3 min 38 sec) 
Finished CPU 0 instructions: 50000000 cycles: 41463683 cumulative IPC: 1.20587 (Simulation time: 0 hr 3 min 38 sec) 

ChampSim completed all CPUs

Region of Interest Statistics

CPU 0 cumulative IPC: 1.20587 instructions: 50000000 cycles: 41463683
L1D TOTAL     ACCESS:   18008832  HIT:   17885697  MISS:     123135
L1D LOAD      ACCESS:    6843406  HIT:    6809262  MISS:      34144
L1D RFO       ACCESS:    4397721  HIT:    4355105  MISS:      42616
L1D PREFETCH  ACCESS:    6767705  HIT:    6721330  MISS:      46375
L1D WRITEBACK ACCESS:          0  HIT:          0  MISS:          0
L1D PREFETCH  REQUESTED:   14566107  ISSUED:   14398569  USEFUL:      39094  USELESS:      64073
L1D AVERAGE MISS LATENCY: 50.2646 cycles
L1I TOTAL     ACCESS:   16368020  HIT:   13180781  MISS:    3187239
L1I LOAD      ACCESS:    8951811  HIT:    8436418  MISS:     515393
L1I RFO       ACCESS:          0  HIT:          0  MISS:          0
L1I PREFETCH  ACCESS:    7416209  HIT:    4744363  MISS:    2671846
L1I WRITEBACK ACCESS:          0  HIT:          0  MISS:          0
L1I PREFETCH  REQUESTED:   57267008  ISSUED:   29048722  USEFUL:    1695991  USELESS:    3041473
L1I AVERAGE MISS LATENCY: 14.4569 cycles
L2C TOTAL     ACCESS:    4881574  HIT:    4844762  MISS:      36812
L2C LOAD      ACCESS:     511870  HIT:     496609  MISS:      15261
L2C RFO       ACCESS:      42488  HIT:      39744  MISS:       2744
L2C PREFETCH  ACCESS:    4253020  HIT:    4234351  MISS:      18669
L2C WRITEBACK ACCESS:      74196  HIT:      74058  MISS:        138
L2C PREFETCH  REQUESTED:    4232274  ISSUED:    4229220  USEFUL:       5795  USELESS:      34448
L2C AVERAGE MISS LATENCY: 125.204 cycles
LLC TOTAL     ACCESS:     207094  HIT:     176030  MISS:      31064
LLC LOAD      ACCESS:      15261  HIT:       6459  MISS:       8802
LLC RFO       ACCESS:       2744  HIT:       1135  MISS:       1609
LLC PREFETCH  ACCESS:     171150  HIT:     151028  MISS:      20122
LLC WRITEBACK ACCESS:      17939  HIT:      17408  MISS:        531
LLC PREFETCH  REQUESTED:          0  ISSUED:          0  USEFUL:       7144  USELESS:      25328
LLC AVERAGE MISS LATENCY: 182.132 cycles
Major fault: 0 Minor fault: 2776
CPU 0 L1D next line prefetcher final stats

DRAM Statistics
 CHANNEL 0
 RQ ROW_BUFFER_HIT:       2446  ROW_BUFFER_MISS:      28087
 DBUS_CONGESTED:      14195
 WQ ROW_BUFFER_HIT:        720  ROW_BUFFER_MISS:      12611  FULL:          0

 AVG_CONGESTED_CYCLE: 4

CPU 0 Branch Prediction Accuracy: 93.9974% MPKI: 10.2447 Average ROB Occupancy at Mispredict: 33.3099

Branch types
NOT_BRANCH: 41466051 82.9321%
BRANCH_DIRECT_JUMP: 464313 0.928626%
BRANCH_INDIRECT: 32 6.4e-05%
BRANCH_CONDITIONAL: 7069451 14.1389%
BRANCH_DIRECT_CALL: 499587 0.999174%
BRANCH_INDIRECT_CALL: 342 0.000684%
BRANCH_RETURN: 499906 0.999812%
BRANCH_OTHER: 0 0%

