Initialize SIGNATURE TABLE
ST_SET: 1
ST_WAY: 256
ST_TAG_BIT: 16
ST_TAG_MASK: ffff

Initialize PATTERN TABLE
PT_SET: 512
PT_WAY: 4
SIG_DELTA_BIT: 7
C_SIG_BIT: 4
C_DELTA_BIT: 4

Initialize PREFETCH FILTER
FILTER_SET: 1024

*** ChampSim Multicore Out-of-Order Simulator ***

Warmup Instructions: 50000000
Simulation Instructions: 50000000
Number of CPUs: 1
LLC sets: 2048
LLC ways: 16
Off-chip DRAM Size: 4096 MB Channels: 1 Width: 64-bit Data Rate: 3200 MT/s

CPU 0 runs /home/tongjie/ChampSim-master/ipc1_public/spec_x264_001.champsimtrace.xz
CPU 0 L1D next line prefetcher
Heartbeat CPU 0 instructions: 10000002 cycles: 3060088 heartbeat IPC: 3.26788 cumulative IPC: 3.26788 (Simulation time: 0 hr 0 min 17 sec) 
Heartbeat CPU 0 instructions: 20000002 cycles: 6110309 heartbeat IPC: 3.27845 cumulative IPC: 3.27316 (Simulation time: 0 hr 0 min 34 sec) 
Heartbeat CPU 0 instructions: 30000002 cycles: 9146027 heartbeat IPC: 3.29411 cumulative IPC: 3.28011 (Simulation time: 0 hr 0 min 53 sec) 
Heartbeat CPU 0 instructions: 40000000 cycles: 12190723 heartbeat IPC: 3.2844 cumulative IPC: 3.28118 (Simulation time: 0 hr 1 min 10 sec) 
Heartbeat CPU 0 instructions: 50000000 cycles: 15233987 heartbeat IPC: 3.28595 cumulative IPC: 3.28213 (Simulation time: 0 hr 1 min 31 sec) 

Warmup complete CPU 0 instructions: 50000004 cycles: 15233988 (Simulation time: 0 hr 1 min 31 sec) 

Heartbeat CPU 0 instructions: 60000002 cycles: 21246753 heartbeat IPC: 1.66313 cumulative IPC: 1.66313 (Simulation time: 0 hr 1 min 43 sec) 
Heartbeat CPU 0 instructions: 70000000 cycles: 27249449 heartbeat IPC: 1.66592 cumulative IPC: 1.66452 (Simulation time: 0 hr 1 min 56 sec) 
Heartbeat CPU 0 instructions: 80000003 cycles: 33391383 heartbeat IPC: 1.62815 cumulative IPC: 1.65222 (Simulation time: 0 hr 2 min 8 sec) 
Heartbeat CPU 0 instructions: 90000002 cycles: 39511125 heartbeat IPC: 1.63406 cumulative IPC: 1.64764 (Simulation time: 0 hr 2 min 20 sec) 
Heartbeat CPU 0 instructions: 100000002 cycles: 45509916 heartbeat IPC: 1.667 cumulative IPC: 1.65148 (Simulation time: 0 hr 2 min 31 sec) 
Finished CPU 0 instructions: 50000002 cycles: 30275929 cumulative IPC: 1.65148 (Simulation time: 0 hr 2 min 31 sec) 

ChampSim completed all CPUs

Region of Interest Statistics

CPU 0 cumulative IPC: 1.65148 instructions: 50000002 cycles: 30275929
L1D TOTAL     ACCESS:   13004862  HIT:   12843898  MISS:     160964
L1D LOAD      ACCESS:    5108761  HIT:    5053803  MISS:      54958
L1D RFO       ACCESS:    2883200  HIT:    2849052  MISS:      34148
L1D PREFETCH  ACCESS:    5012901  HIT:    4941043  MISS:      71858
L1D WRITEBACK ACCESS:          0  HIT:          0  MISS:          0
L1D PREFETCH  REQUESTED:   12505989  ISSUED:   12319457  USEFUL:      53861  USELESS:      93128
L1D AVERAGE MISS LATENCY: 40.6741 cycles
L1I TOTAL     ACCESS:    8601432  HIT:    8267957  MISS:     333475
L1I LOAD      ACCESS:    8029573  HIT:    7992583  MISS:      36990
L1I RFO       ACCESS:          0  HIT:          0  MISS:          0
L1I PREFETCH  ACCESS:     571859  HIT:     275374  MISS:     296485
L1I WRITEBACK ACCESS:          0  HIT:          0  MISS:          0
L1I PREFETCH  REQUESTED:    5415808  ISSUED:    2934928  USEFUL:     478591  USELESS:      93422
L1I AVERAGE MISS LATENCY: 14.8338 cycles
L2C TOTAL     ACCESS:     709844  HIT:     671240  MISS:      38604
L2C LOAD      ACCESS:      87463  HIT:      80528  MISS:       6935
L2C RFO       ACCESS:      33913  HIT:      21854  MISS:      12059
L2C PREFETCH  ACCESS:     545414  HIT:     525876  MISS:      19538
L2C WRITEBACK ACCESS:      43054  HIT:      42982  MISS:         72
L2C PREFETCH  REQUESTED:     938895  ISSUED:     935444  USEFUL:      18173  USELESS:      21818
L2C AVERAGE MISS LATENCY: 107.636 cycles
LLC TOTAL     ACCESS:     130818  HIT:     101980  MISS:      28838
LLC LOAD      ACCESS:       6921  HIT:       4703  MISS:       2218
LLC RFO       ACCESS:      12059  HIT:        436  MISS:      11623
LLC PREFETCH  ACCESS:      98282  HIT:      83354  MISS:      14928
LLC WRITEBACK ACCESS:      13556  HIT:      13487  MISS:         69
LLC PREFETCH  REQUESTED:          0  ISSUED:          0  USEFUL:       3949  USELESS:      16179
LLC AVERAGE MISS LATENCY: 165.275 cycles
Major fault: 0 Minor fault: 1284
CPU 0 L1D next line prefetcher final stats

DRAM Statistics
 CHANNEL 0
 RQ ROW_BUFFER_HIT:       8859  ROW_BUFFER_MISS:      19910
 DBUS_CONGESTED:      12150
 WQ ROW_BUFFER_HIT:       2854  ROW_BUFFER_MISS:       9898  FULL:          0

 AVG_CONGESTED_CYCLE: 6

CPU 0 Branch Prediction Accuracy: 97.1633% MPKI: 1.73704 Average ROB Occupancy at Mispredict: 36.7617

Branch types
NOT_BRANCH: 46937910 93.8758%
BRANCH_DIRECT_JUMP: 170816 0.341632%
BRANCH_INDIRECT: 0 0%
BRANCH_CONDITIONAL: 2532772 5.06554%
BRANCH_DIRECT_CALL: 114227 0.228454%
BRANCH_INDIRECT_CALL: 64863 0.129726%
BRANCH_RETURN: 179089 0.358178%
BRANCH_OTHER: 0 0%

