Initialize SIGNATURE TABLE
ST_SET: 1
ST_WAY: 256
ST_TAG_BIT: 16
ST_TAG_MASK: ffff

Initialize PATTERN TABLE
PT_SET: 512
PT_WAY: 4
SIG_DELTA_BIT: 7
C_SIG_BIT: 4
C_DELTA_BIT: 4

Initialize PREFETCH FILTER
FILTER_SET: 1024

*** ChampSim Multicore Out-of-Order Simulator ***

Warmup Instructions: 50000000
Simulation Instructions: 50000000
Number of CPUs: 1
LLC sets: 2048
LLC ways: 16
Off-chip DRAM Size: 4096 MB Channels: 1 Width: 64-bit Data Rate: 3200 MT/s

CPU 0 runs /home/tongjie/ChampSim-master/ipc1_public/spec_gcc_001.champsimtrace.xz
CPU 0 L1D next line prefetcher
Heartbeat CPU 0 instructions: 10000003 cycles: 3220932 heartbeat IPC: 3.10469 cumulative IPC: 3.10469 (Simulation time: 0 hr 0 min 22 sec) 
Heartbeat CPU 0 instructions: 20000002 cycles: 6467227 heartbeat IPC: 3.08043 cumulative IPC: 3.09252 (Simulation time: 0 hr 0 min 45 sec) 
Heartbeat CPU 0 instructions: 30000000 cycles: 9670566 heartbeat IPC: 3.12174 cumulative IPC: 3.1022 (Simulation time: 0 hr 1 min 7 sec) 
Heartbeat CPU 0 instructions: 40000001 cycles: 12913225 heartbeat IPC: 3.08389 cumulative IPC: 3.0976 (Simulation time: 0 hr 1 min 30 sec) 
Heartbeat CPU 0 instructions: 50000001 cycles: 16155312 heartbeat IPC: 3.08443 cumulative IPC: 3.09496 (Simulation time: 0 hr 1 min 53 sec) 

Warmup complete CPU 0 instructions: 50000001 cycles: 16155312 (Simulation time: 0 hr 1 min 53 sec) 

Heartbeat CPU 0 instructions: 60000003 cycles: 24615601 heartbeat IPC: 1.18199 cumulative IPC: 1.18199 (Simulation time: 0 hr 2 min 16 sec) 
Heartbeat CPU 0 instructions: 70000002 cycles: 32929096 heartbeat IPC: 1.20286 cumulative IPC: 1.19234 (Simulation time: 0 hr 2 min 40 sec) 
Heartbeat CPU 0 instructions: 80000000 cycles: 41240481 heartbeat IPC: 1.20317 cumulative IPC: 1.19593 (Simulation time: 0 hr 3 min 1 sec) 
Heartbeat CPU 0 instructions: 90000001 cycles: 49682109 heartbeat IPC: 1.18461 cumulative IPC: 1.19308 (Simulation time: 0 hr 3 min 21 sec) 
Heartbeat CPU 0 instructions: 100000000 cycles: 58308024 heartbeat IPC: 1.1593 cumulative IPC: 1.18616 (Simulation time: 0 hr 3 min 42 sec) 
Finished CPU 0 instructions: 50000000 cycles: 42152716 cumulative IPC: 1.18616 (Simulation time: 0 hr 3 min 42 sec) 

ChampSim completed all CPUs

Region of Interest Statistics

CPU 0 cumulative IPC: 1.18616 instructions: 50000000 cycles: 42152716
L1D TOTAL     ACCESS:   19673974  HIT:   18568777  MISS:    1105197
L1D LOAD      ACCESS:    7406911  HIT:    6927988  MISS:     478923
L1D RFO       ACCESS:    5127183  HIT:    5047571  MISS:      79612
L1D PREFETCH  ACCESS:    7139880  HIT:    6593218  MISS:     546662
L1D WRITEBACK ACCESS:          0  HIT:          0  MISS:          0
L1D PREFETCH  REQUESTED:   16517059  ISSUED:   16284889  USEFUL:     401558  USELESS:     404019
L1D AVERAGE MISS LATENCY: 26.7441 cycles
L1I TOTAL     ACCESS:   11884947  HIT:    9839671  MISS:    2045276
L1I LOAD      ACCESS:    9376550  HIT:    8899486  MISS:     477064
L1I RFO       ACCESS:          0  HIT:          0  MISS:          0
L1I PREFETCH  ACCESS:    2508397  HIT:     940185  MISS:    1568212
L1I WRITEBACK ACCESS:          0  HIT:          0  MISS:          0
L1I PREFETCH  REQUESTED:   21075264  ISSUED:    9175326  USEFUL:     378359  USELESS:    2001752
L1I AVERAGE MISS LATENCY: 16.4815 cycles
L2C TOTAL     ACCESS:    4754322  HIT:    4432565  MISS:     321757
L2C LOAD      ACCESS:     906752  HIT:     799884  MISS:     106868
L2C RFO       ACCESS:      75065  HIT:      34754  MISS:      40311
L2C PREFETCH  ACCESS:    3518744  HIT:    3345258  MISS:     173486
L2C WRITEBACK ACCESS:     253761  HIT:     252669  MISS:       1092
L2C PREFETCH  REQUESTED:    5062472  ISSUED:    4986978  USEFUL:      52954  USELESS:     201031
L2C AVERAGE MISS LATENCY: 55.5248 cycles
LLC TOTAL     ACCESS:    1064469  HIT:     991416  MISS:      73053
LLC LOAD      ACCESS:     106650  HIT:      95724  MISS:      10926
LLC RFO       ACCESS:      40311  HIT:      19203  MISS:      21108
LLC PREFETCH  ACCESS:     816057  HIT:     775710  MISS:      40347
LLC WRITEBACK ACCESS:     101451  HIT:     100779  MISS:        672
LLC PREFETCH  REQUESTED:          0  ISSUED:          0  USEFUL:      45948  USELESS:      69914
LLC AVERAGE MISS LATENCY: 184.89 cycles
Major fault: 0 Minor fault: 6865
CPU 0 L1D next line prefetcher final stats

DRAM Statistics
 CHANNEL 0
 RQ ROW_BUFFER_HIT:      18555  ROW_BUFFER_MISS:      53826
 DBUS_CONGESTED:      34229
 WQ ROW_BUFFER_HIT:       4435  ROW_BUFFER_MISS:      23440  FULL:          0

 AVG_CONGESTED_CYCLE: 6

CPU 0 Branch Prediction Accuracy: 95.8872% MPKI: 9.67286 Average ROB Occupancy at Mispredict: 57.0507

Branch types
NOT_BRANCH: 38240102 76.4802%
BRANCH_DIRECT_JUMP: 653296 1.30659%
BRANCH_INDIRECT: 37098 0.074196%
BRANCH_CONDITIONAL: 8897819 17.7956%
BRANCH_DIRECT_CALL: 992620 1.98524%
BRANCH_INDIRECT_CALL: 93046 0.186092%
BRANCH_RETURN: 1085674 2.17135%
BRANCH_OTHER: 0 0%

