Initialize SIGNATURE TABLE
ST_SET: 1
ST_WAY: 256
ST_TAG_BIT: 16
ST_TAG_MASK: ffff

Initialize PATTERN TABLE
PT_SET: 512
PT_WAY: 4
SIG_DELTA_BIT: 7
C_SIG_BIT: 4
C_DELTA_BIT: 4

Initialize PREFETCH FILTER
FILTER_SET: 1024

*** ChampSim Multicore Out-of-Order Simulator ***

Warmup Instructions: 50000000
Simulation Instructions: 50000000
Number of CPUs: 1
LLC sets: 2048
LLC ways: 16
Off-chip DRAM Size: 4096 MB Channels: 1 Width: 64-bit Data Rate: 3200 MT/s

CPU 0 runs /home/tongjie/ChampSim/ipc1_public/client_004.champsimtrace.xz
CPU 0 L1D next line prefetcher
Heartbeat CPU 0 instructions: 10000000 cycles: 3592657 heartbeat IPC: 2.78346 cumulative IPC: 2.78346 (Simulation time: 0 hr 0 min 22 sec) 
Heartbeat CPU 0 instructions: 20000003 cycles: 7057312 heartbeat IPC: 2.88629 cumulative IPC: 2.83394 (Simulation time: 0 hr 0 min 46 sec) 
Heartbeat CPU 0 instructions: 30000000 cycles: 10648294 heartbeat IPC: 2.78475 cumulative IPC: 2.81735 (Simulation time: 0 hr 1 min 9 sec) 
Heartbeat CPU 0 instructions: 40000003 cycles: 14328978 heartbeat IPC: 2.71689 cumulative IPC: 2.79155 (Simulation time: 0 hr 1 min 35 sec) 
Heartbeat CPU 0 instructions: 50000001 cycles: 17847899 heartbeat IPC: 2.84178 cumulative IPC: 2.80145 (Simulation time: 0 hr 2 min 0 sec) 

Warmup complete CPU 0 instructions: 50000001 cycles: 17847899 (Simulation time: 0 hr 2 min 0 sec) 

Heartbeat CPU 0 instructions: 60000002 cycles: 26855962 heartbeat IPC: 1.11012 cumulative IPC: 1.11012 (Simulation time: 0 hr 2 min 27 sec) 
Heartbeat CPU 0 instructions: 70000001 cycles: 35555456 heartbeat IPC: 1.14949 cumulative IPC: 1.12946 (Simulation time: 0 hr 2 min 49 sec) 
Heartbeat CPU 0 instructions: 80000002 cycles: 45419002 heartbeat IPC: 1.01383 cumulative IPC: 1.0881 (Simulation time: 0 hr 3 min 11 sec) 
Heartbeat CPU 0 instructions: 90000000 cycles: 54371350 heartbeat IPC: 1.11703 cumulative IPC: 1.09519 (Simulation time: 0 hr 3 min 32 sec) 
Heartbeat CPU 0 instructions: 100000002 cycles: 63394783 heartbeat IPC: 1.10823 cumulative IPC: 1.09777 (Simulation time: 0 hr 3 min 52 sec) 
Finished CPU 0 instructions: 50000001 cycles: 45546884 cumulative IPC: 1.09777 (Simulation time: 0 hr 3 min 52 sec) 

ChampSim completed all CPUs

Region of Interest Statistics

CPU 0 cumulative IPC: 1.09777 instructions: 50000001 cycles: 45546884
L1D TOTAL     ACCESS:   22379871  HIT:   21490482  MISS:     889389
L1D LOAD      ACCESS:    8912481  HIT:    8519268  MISS:     393213
L1D RFO       ACCESS:    4841852  HIT:    4720778  MISS:     121074
L1D PREFETCH  ACCESS:    8625538  HIT:    8250436  MISS:     375102
L1D WRITEBACK ACCESS:          0  HIT:          0  MISS:          0
L1D PREFETCH  REQUESTED:   20011884  ISSUED:   19574657  USEFUL:     249760  USELESS:     442894
L1D AVERAGE MISS LATENCY: 28.7147 cycles
L1I TOTAL     ACCESS:    9436257  HIT:    8936344  MISS:     499913
L1I LOAD      ACCESS:    9436257  HIT:    8936344  MISS:     499913
L1I RFO       ACCESS:          0  HIT:          0  MISS:          0
L1I PREFETCH  ACCESS:          0  HIT:          0  MISS:          0
L1I WRITEBACK ACCESS:          0  HIT:          0  MISS:          0
L1I PREFETCH  REQUESTED:          0  ISSUED:          0  USEFUL:          0  USELESS:          0
L1I AVERAGE MISS LATENCY: 27.938 cycles
L2C TOTAL     ACCESS:    2313293  HIT:    2044700  MISS:     268593
L2C LOAD      ACCESS:     875266  HIT:     730378  MISS:     144888
L2C RFO       ACCESS:     117198  HIT:      47891  MISS:      69307
L2C PREFETCH  ACCESS:    1098726  HIT:    1044804  MISS:      53922
L2C WRITEBACK ACCESS:     222103  HIT:     221627  MISS:        476
L2C PREFETCH  REQUESTED:    2359458  ISSUED:    2354584  USEFUL:      27595  USELESS:     110321
L2C AVERAGE MISS LATENCY: 74.102 cycles
LLC TOTAL     ACCESS:     647311  HIT:     522163  MISS:     125148
LLC LOAD      ACCESS:     144789  HIT:     111722  MISS:      33067
LLC RFO       ACCESS:      69306  HIT:      39731  MISS:      29575
LLC PREFETCH  ACCESS:     336190  HIT:     273950  MISS:      62240
LLC WRITEBACK ACCESS:      97026  HIT:      96760  MISS:        266
LLC PREFETCH  REQUESTED:          0  ISSUED:          0  USEFUL:      61267  USELESS:      81828
LLC AVERAGE MISS LATENCY: 161.779 cycles
Major fault: 0 Minor fault: 3976
CPU 0 L1D next line prefetcher final stats

DRAM Statistics
 CHANNEL 0
 RQ ROW_BUFFER_HIT:      30620  ROW_BUFFER_MISS:      94251
 DBUS_CONGESTED:      51396
 WQ ROW_BUFFER_HIT:       9680  ROW_BUFFER_MISS:      32574  FULL:          0

 AVG_CONGESTED_CYCLE: 5

CPU 0 Branch Prediction Accuracy: 94.1242% MPKI: 11.6089 Average ROB Occupancy at Mispredict: 46.5687

Branch types
NOT_BRANCH: 40121072 80.2421%
BRANCH_DIRECT_JUMP: 644555 1.28911%
BRANCH_INDIRECT: 201946 0.403892%
BRANCH_CONDITIONAL: 7003556 14.0071%
BRANCH_DIRECT_CALL: 564821 1.12964%
BRANCH_INDIRECT_CALL: 445012 0.890024%
BRANCH_RETURN: 1018716 2.03743%
BRANCH_OTHER: 0 0%

