Initialize SIGNATURE TABLE
ST_SET: 1
ST_WAY: 256
ST_TAG_BIT: 16
ST_TAG_MASK: ffff

Initialize PATTERN TABLE
PT_SET: 512
PT_WAY: 4
SIG_DELTA_BIT: 7
C_SIG_BIT: 4
C_DELTA_BIT: 4

Initialize PREFETCH FILTER
FILTER_SET: 1024

*** ChampSim Multicore Out-of-Order Simulator ***

Warmup Instructions: 50000000
Simulation Instructions: 50000000
Number of CPUs: 1
LLC sets: 2048
LLC ways: 16
Off-chip DRAM Size: 4096 MB Channels: 1 Width: 64-bit Data Rate: 3200 MT/s

CPU 0 runs /home/tongjie/ChampSim/ipc1_public/client_005.champsimtrace.xz
CPU 0 L1D next line prefetcher
Heartbeat CPU 0 instructions: 10000001 cycles: 3291784 heartbeat IPC: 3.03787 cumulative IPC: 3.03787 (Simulation time: 0 hr 0 min 21 sec) 
Heartbeat CPU 0 instructions: 20000002 cycles: 6697674 heartbeat IPC: 2.93609 cumulative IPC: 2.98611 (Simulation time: 0 hr 0 min 42 sec) 
Heartbeat CPU 0 instructions: 30000001 cycles: 10391134 heartbeat IPC: 2.70749 cumulative IPC: 2.88708 (Simulation time: 0 hr 1 min 6 sec) 
Heartbeat CPU 0 instructions: 40000000 cycles: 14069037 heartbeat IPC: 2.71894 cumulative IPC: 2.84312 (Simulation time: 0 hr 1 min 29 sec) 
Heartbeat CPU 0 instructions: 50000001 cycles: 17342567 heartbeat IPC: 3.05481 cumulative IPC: 2.88308 (Simulation time: 0 hr 1 min 51 sec) 

Warmup complete CPU 0 instructions: 50000001 cycles: 17342567 (Simulation time: 0 hr 1 min 51 sec) 

Heartbeat CPU 0 instructions: 60000002 cycles: 26501749 heartbeat IPC: 1.0918 cumulative IPC: 1.0918 (Simulation time: 0 hr 2 min 11 sec) 
Heartbeat CPU 0 instructions: 70000003 cycles: 34555677 heartbeat IPC: 1.24163 cumulative IPC: 1.16191 (Simulation time: 0 hr 2 min 33 sec) 
Heartbeat CPU 0 instructions: 80000001 cycles: 41826861 heartbeat IPC: 1.37529 cumulative IPC: 1.22528 (Simulation time: 0 hr 3 min 3 sec) 
Heartbeat CPU 0 instructions: 90000002 cycles: 51654437 heartbeat IPC: 1.01754 cumulative IPC: 1.16578 (Simulation time: 0 hr 3 min 32 sec) 
Heartbeat CPU 0 instructions: 100000002 cycles: 60184578 heartbeat IPC: 1.17231 cumulative IPC: 1.16708 (Simulation time: 0 hr 3 min 50 sec) 
Finished CPU 0 instructions: 50000001 cycles: 42842011 cumulative IPC: 1.16708 (Simulation time: 0 hr 3 min 50 sec) 

ChampSim completed all CPUs

Region of Interest Statistics

CPU 0 cumulative IPC: 1.16708 instructions: 50000001 cycles: 42842011
L1D TOTAL     ACCESS:   20096485  HIT:   19560243  MISS:     536242
L1D LOAD      ACCESS:    6865870  HIT:    6695128  MISS:     170742
L1D RFO       ACCESS:    6818474  HIT:    6634333  MISS:     184141
L1D PREFETCH  ACCESS:    6412141  HIT:    6230782  MISS:     181359
L1D WRITEBACK ACCESS:          0  HIT:          0  MISS:          0
L1D PREFETCH  REQUESTED:   15850017  ISSUED:   14963139  USEFUL:     134486  USELESS:     235917
L1D AVERAGE MISS LATENCY: 91.1458 cycles
L1I TOTAL     ACCESS:    9327655  HIT:    8732224  MISS:     595431
L1I LOAD      ACCESS:    9327655  HIT:    8732224  MISS:     595431
L1I RFO       ACCESS:          0  HIT:          0  MISS:          0
L1I PREFETCH  ACCESS:          0  HIT:          0  MISS:          0
L1I WRITEBACK ACCESS:          0  HIT:          0  MISS:          0
L1I PREFETCH  REQUESTED:          0  ISSUED:          0  USEFUL:          0  USELESS:          0
L1I AVERAGE MISS LATENCY: 21.6175 cycles
L2C TOTAL     ACCESS:    1928446  HIT:    1553700  MISS:     374746
L2C LOAD      ACCESS:     754936  HIT:     617533  MISS:     137403
L2C RFO       ACCESS:     180577  HIT:      33043  MISS:     147534
L2C PREFETCH  ACCESS:     739867  HIT:     651057  MISS:      88810
L2C WRITEBACK ACCESS:     253066  HIT:     252067  MISS:        999
L2C PREFETCH  REQUESTED:    1985497  ISSUED:    1982954  USEFUL:      14766  USELESS:     164022
L2C AVERAGE MISS LATENCY: 123.546 cycles
LLC TOTAL     ACCESS:     863154  HIT:     567315  MISS:     295839
LLC LOAD      ACCESS:     137374  HIT:      87680  MISS:      49694
LLC RFO       ACCESS:     147534  HIT:      16954  MISS:     130580
LLC PREFETCH  ACCESS:     380824  HIT:     266197  MISS:     114627
LLC WRITEBACK ACCESS:     197422  HIT:     196484  MISS:        938
LLC PREFETCH  REQUESTED:          0  ISSUED:          0  USEFUL:      63176  USELESS:     156201
LLC AVERAGE MISS LATENCY: 162.263 cycles
Major fault: 0 Minor fault: 6084
CPU 0 L1D next line prefetcher final stats

DRAM Statistics
 CHANNEL 0
 RQ ROW_BUFFER_HIT:      95145  ROW_BUFFER_MISS:     199740
 DBUS_CONGESTED:     233765
 WQ ROW_BUFFER_HIT:      52462  ROW_BUFFER_MISS:     129914  FULL:          0

 AVG_CONGESTED_CYCLE: 6

CPU 0 Branch Prediction Accuracy: 97.8666% MPKI: 3.9013 Average ROB Occupancy at Mispredict: 71.389

Branch types
NOT_BRANCH: 40856329 81.7127%
BRANCH_DIRECT_JUMP: 484667 0.969334%
BRANCH_INDIRECT: 85086 0.170172%
BRANCH_CONDITIONAL: 6230887 12.4618%
BRANCH_DIRECT_CALL: 1028917 2.05783%
BRANCH_INDIRECT_CALL: 141825 0.28365%
BRANCH_RETURN: 1171985 2.34397%
BRANCH_OTHER: 0 0%

