Initialize SIGNATURE TABLE
ST_SET: 1
ST_WAY: 256
ST_TAG_BIT: 16
ST_TAG_MASK: ffff

Initialize PATTERN TABLE
PT_SET: 512
PT_WAY: 4
SIG_DELTA_BIT: 7
C_SIG_BIT: 4
C_DELTA_BIT: 4

Initialize PREFETCH FILTER
FILTER_SET: 1024

*** ChampSim Multicore Out-of-Order Simulator ***

Warmup Instructions: 50000000
Simulation Instructions: 50000000
Number of CPUs: 1
LLC sets: 2048
LLC ways: 16
Off-chip DRAM Size: 4096 MB Channels: 1 Width: 64-bit Data Rate: 3200 MT/s

CPU 0 runs /home/tongjie/ChampSim/ipc1_public/client_003.champsimtrace.xz
CPU 0 L1D next line prefetcher
Heartbeat CPU 0 instructions: 10000000 cycles: 3478409 heartbeat IPC: 2.87488 cumulative IPC: 2.87488 (Simulation time: 0 hr 0 min 23 sec) 
Heartbeat CPU 0 instructions: 20000002 cycles: 6933105 heartbeat IPC: 2.89461 cumulative IPC: 2.88471 (Simulation time: 0 hr 0 min 48 sec) 
Heartbeat CPU 0 instructions: 30000003 cycles: 10494342 heartbeat IPC: 2.80801 cumulative IPC: 2.85868 (Simulation time: 0 hr 1 min 11 sec) 
Heartbeat CPU 0 instructions: 40000001 cycles: 14110936 heartbeat IPC: 2.76503 cumulative IPC: 2.83468 (Simulation time: 0 hr 1 min 38 sec) 
Heartbeat CPU 0 instructions: 50000003 cycles: 17656199 heartbeat IPC: 2.82067 cumulative IPC: 2.83187 (Simulation time: 0 hr 2 min 4 sec) 

Warmup complete CPU 0 instructions: 50000003 cycles: 17656199 (Simulation time: 0 hr 2 min 4 sec) 

Heartbeat CPU 0 instructions: 60000002 cycles: 24573907 heartbeat IPC: 1.44557 cumulative IPC: 1.44557 (Simulation time: 0 hr 2 min 32 sec) 
Heartbeat CPU 0 instructions: 70000001 cycles: 31190402 heartbeat IPC: 1.51137 cumulative IPC: 1.47774 (Simulation time: 0 hr 2 min 54 sec) 
Heartbeat CPU 0 instructions: 80000000 cycles: 39193502 heartbeat IPC: 1.24952 cumulative IPC: 1.39293 (Simulation time: 0 hr 3 min 16 sec) 
Heartbeat CPU 0 instructions: 90000000 cycles: 48745253 heartbeat IPC: 1.04693 cumulative IPC: 1.28663 (Simulation time: 0 hr 3 min 34 sec) 
Heartbeat CPU 0 instructions: 100000003 cycles: 59696175 heartbeat IPC: 0.913165 cumulative IPC: 1.18934 (Simulation time: 0 hr 3 min 53 sec) 
Finished CPU 0 instructions: 50000000 cycles: 42039976 cumulative IPC: 1.18934 (Simulation time: 0 hr 3 min 53 sec) 

ChampSim completed all CPUs

Region of Interest Statistics

CPU 0 cumulative IPC: 1.18934 instructions: 50000000 cycles: 42039976
L1D TOTAL     ACCESS:   18018654  HIT:   17522477  MISS:     496177
L1D LOAD      ACCESS:    6220012  HIT:    6094366  MISS:     125646
L1D RFO       ACCESS:    5970868  HIT:    5736821  MISS:     234047
L1D PREFETCH  ACCESS:    5827774  HIT:    5691290  MISS:     136484
L1D WRITEBACK ACCESS:          0  HIT:          0  MISS:          0
L1D PREFETCH  REQUESTED:   15639797  ISSUED:   15327862  USEFUL:     120633  USELESS:     161342
L1D AVERAGE MISS LATENCY: 122.834 cycles
L1I TOTAL     ACCESS:    9461004  HIT:    9054363  MISS:     406641
L1I LOAD      ACCESS:    9461004  HIT:    9054363  MISS:     406641
L1I RFO       ACCESS:          0  HIT:          0  MISS:          0
L1I PREFETCH  ACCESS:          0  HIT:          0  MISS:          0
L1I WRITEBACK ACCESS:          0  HIT:          0  MISS:          0
L1I PREFETCH  REQUESTED:          0  ISSUED:          0  USEFUL:          0  USELESS:          0
L1I AVERAGE MISS LATENCY: 21.9816 cycles
L2C TOTAL     ACCESS:    1545468  HIT:    1162824  MISS:     382644
L2C LOAD      ACCESS:     499455  HIT:     421107  MISS:      78348
L2C RFO       ACCESS:     232019  HIT:      27116  MISS:     204903
L2C PREFETCH  ACCESS:     544692  HIT:     446163  MISS:      98529
L2C WRITEBACK ACCESS:     269302  HIT:     268438  MISS:        864
L2C PREFETCH  REQUESTED:    1683222  ISSUED:    1680908  USEFUL:      14394  USELESS:     135551
L2C AVERAGE MISS LATENCY: 167.985 cycles
LLC TOTAL     ACCESS:     919150  HIT:     638091  MISS:     281059
LLC LOAD      ACCESS:      78242  HIT:      59350  MISS:      18892
LLC RFO       ACCESS:     204896  HIT:      33993  MISS:     170903
LLC PREFETCH  ACCESS:     413932  HIT:     323064  MISS:      90868
LLC WRITEBACK ACCESS:     222080  HIT:     221684  MISS:        396
LLC PREFETCH  REQUESTED:          0  ISSUED:          0  USEFUL:      36110  USELESS:      97170
LLC AVERAGE MISS LATENCY: 227.575 cycles
Major fault: 0 Minor fault: 5042
CPU 0 L1D next line prefetcher final stats

DRAM Statistics
 CHANNEL 0
 RQ ROW_BUFFER_HIT:      97567  ROW_BUFFER_MISS:     183093
 DBUS_CONGESTED:     253847
 WQ ROW_BUFFER_HIT:      60352  ROW_BUFFER_MISS:     117748  FULL:          0

 AVG_CONGESTED_CYCLE: 6

CPU 0 Branch Prediction Accuracy: 98.6631% MPKI: 2.66884 Average ROB Occupancy at Mispredict: 60.8297

Branch types
NOT_BRANCH: 40018761 80.0375%
BRANCH_DIRECT_JUMP: 370861 0.741722%
BRANCH_INDIRECT: 83252 0.166504%
BRANCH_CONDITIONAL: 7877434 15.7549%
BRANCH_DIRECT_CALL: 722314 1.44463%
BRANCH_INDIRECT_CALL: 101901 0.203802%
BRANCH_RETURN: 825355 1.65071%
BRANCH_OTHER: 0 0%

