Initialize SIGNATURE TABLE
ST_SET: 1
ST_WAY: 256
ST_TAG_BIT: 16
ST_TAG_MASK: ffff

Initialize PATTERN TABLE
PT_SET: 512
PT_WAY: 4
SIG_DELTA_BIT: 7
C_SIG_BIT: 4
C_DELTA_BIT: 4

Initialize PREFETCH FILTER
FILTER_SET: 1024

*** ChampSim Multicore Out-of-Order Simulator ***

Warmup Instructions: 50000000
Simulation Instructions: 50000000
Number of CPUs: 1
LLC sets: 2048
LLC ways: 16
Off-chip DRAM Size: 4096 MB Channels: 1 Width: 64-bit Data Rate: 3200 MT/s

CPU 0 runs /home/tongjie/ChampSim/ipc1_public/client_006.champsimtrace.xz
CPU 0 L1D next line prefetcher
Heartbeat CPU 0 instructions: 10000003 cycles: 4267707 heartbeat IPC: 2.34318 cumulative IPC: 2.34318 (Simulation time: 0 hr 0 min 23 sec) 
Heartbeat CPU 0 instructions: 20000000 cycles: 8308340 heartbeat IPC: 2.47486 cumulative IPC: 2.40722 (Simulation time: 0 hr 0 min 46 sec) 
Heartbeat CPU 0 instructions: 30000003 cycles: 11374173 heartbeat IPC: 3.26176 cumulative IPC: 2.63755 (Simulation time: 0 hr 1 min 5 sec) 
Heartbeat CPU 0 instructions: 40000000 cycles: 14721015 heartbeat IPC: 2.98789 cumulative IPC: 2.7172 (Simulation time: 0 hr 1 min 26 sec) 
Heartbeat CPU 0 instructions: 50000003 cycles: 18826288 heartbeat IPC: 2.43589 cumulative IPC: 2.65586 (Simulation time: 0 hr 1 min 49 sec) 

Warmup complete CPU 0 instructions: 50000003 cycles: 18826288 (Simulation time: 0 hr 1 min 49 sec) 

Heartbeat CPU 0 instructions: 60000001 cycles: 28185683 heartbeat IPC: 1.06844 cumulative IPC: 1.06844 (Simulation time: 0 hr 2 min 8 sec) 
Heartbeat CPU 0 instructions: 70000000 cycles: 38181104 heartbeat IPC: 1.00046 cumulative IPC: 1.03333 (Simulation time: 0 hr 2 min 31 sec) 
Heartbeat CPU 0 instructions: 80000003 cycles: 48238888 heartbeat IPC: 0.994255 cumulative IPC: 1.01997 (Simulation time: 0 hr 2 min 55 sec) 
Heartbeat CPU 0 instructions: 90000003 cycles: 56251934 heartbeat IPC: 1.24796 cumulative IPC: 1.06879 (Simulation time: 0 hr 3 min 18 sec) 
Heartbeat CPU 0 instructions: 100000001 cycles: 66225539 heartbeat IPC: 1.00265 cumulative IPC: 1.05487 (Simulation time: 0 hr 3 min 39 sec) 
Finished CPU 0 instructions: 50000002 cycles: 47399252 cumulative IPC: 1.05487 (Simulation time: 0 hr 3 min 39 sec) 

ChampSim completed all CPUs

Region of Interest Statistics

CPU 0 cumulative IPC: 1.05487 instructions: 50000002 cycles: 47399252
L1D TOTAL     ACCESS:   17174246  HIT:   16447343  MISS:     726903
L1D LOAD      ACCESS:    6638665  HIT:    6237220  MISS:     401445
L1D RFO       ACCESS:    4352715  HIT:    4310159  MISS:      42556
L1D PREFETCH  ACCESS:    6182866  HIT:    5899964  MISS:     282902
L1D WRITEBACK ACCESS:          0  HIT:          0  MISS:          0
L1D PREFETCH  REQUESTED:   18823860  ISSUED:   18248484  USEFUL:     420860  USELESS:     547896
L1D AVERAGE MISS LATENCY: 79.3123 cycles
L1I TOTAL     ACCESS:    8444279  HIT:    7757442  MISS:     686837
L1I LOAD      ACCESS:    8444279  HIT:    7757442  MISS:     686837
L1I RFO       ACCESS:          0  HIT:          0  MISS:          0
L1I PREFETCH  ACCESS:          0  HIT:          0  MISS:          0
L1I WRITEBACK ACCESS:          0  HIT:          0  MISS:          0
L1I PREFETCH  REQUESTED:          0  ISSUED:          0  USEFUL:          0  USELESS:          0
L1I AVERAGE MISS LATENCY: 20.535 cycles
L2C TOTAL     ACCESS:    2511717  HIT:    1969151  MISS:     542566
L2C LOAD      ACCESS:    1023506  HIT:     748741  MISS:     274765
L2C RFO       ACCESS:      42281  HIT:      12457  MISS:      29824
L2C PREFETCH  ACCESS:    1269966  HIT:    1032682  MISS:     237284
L2C WRITEBACK ACCESS:     175964  HIT:     175271  MISS:        693
L2C PREFETCH  REQUESTED:    5001434  ISSUED:    4959564  USEFUL:      18070  USELESS:     501684
L2C AVERAGE MISS LATENCY: 107.274 cycles
LLC TOTAL     ACCESS:    1276918  HIT:     894314  MISS:     382604
LLC LOAD      ACCESS:     264793  HIT:     162254  MISS:     102539
LLC RFO       ACCESS:      29823  HIT:       5005  MISS:      24818
LLC PREFETCH  ACCESS:     848425  HIT:     593768  MISS:     254657
LLC WRITEBACK ACCESS:     133877  HIT:     133287  MISS:        590
LLC PREFETCH  REQUESTED:          0  ISSUED:          0  USEFUL:      74837  USELESS:     371213
LLC AVERAGE MISS LATENCY: 184.468 cycles
Major fault: 0 Minor fault: 10527
CPU 0 L1D next line prefetcher final stats

DRAM Statistics
 CHANNEL 0
 RQ ROW_BUFFER_HIT:      97240  ROW_BUFFER_MISS:     284761
 DBUS_CONGESTED:     223313
 WQ ROW_BUFFER_HIT:      22768  ROW_BUFFER_MISS:      91878  FULL:          0

 AVG_CONGESTED_CYCLE: 5

CPU 0 Branch Prediction Accuracy: 98.1683% MPKI: 3.13642 Average ROB Occupancy at Mispredict: 73.9718

Branch types
NOT_BRANCH: 41438057 82.8761%
BRANCH_DIRECT_JUMP: 413829 0.827658%
BRANCH_INDIRECT: 47058 0.094116%
BRANCH_CONDITIONAL: 6843835 13.6877%
BRANCH_DIRECT_CALL: 536885 1.07377%
BRANCH_INDIRECT_CALL: 90642 0.181284%
BRANCH_RETURN: 629329 1.25866%
BRANCH_OTHER: 0 0%

