Initialize SIGNATURE TABLE
ST_SET: 1
ST_WAY: 256
ST_TAG_BIT: 16
ST_TAG_MASK: ffff

Initialize PATTERN TABLE
PT_SET: 512
PT_WAY: 4
SIG_DELTA_BIT: 7
C_SIG_BIT: 4
C_DELTA_BIT: 4

Initialize PREFETCH FILTER
FILTER_SET: 1024

*** ChampSim Multicore Out-of-Order Simulator ***

Warmup Instructions: 50000000
Simulation Instructions: 50000000
Number of CPUs: 1
LLC sets: 2048
LLC ways: 16
Off-chip DRAM Size: 4096 MB Channels: 1 Width: 64-bit Data Rate: 3200 MT/s

CPU 0 runs /home/tongjie/ChampSim/ipc1_public/server_019.champsimtrace.xz
CPU 0 L1D next line prefetcher
Heartbeat CPU 0 instructions: 10000002 cycles: 3628439 heartbeat IPC: 2.75601 cumulative IPC: 2.75601 (Simulation time: 0 hr 0 min 25 sec) 
Heartbeat CPU 0 instructions: 20000003 cycles: 7258489 heartbeat IPC: 2.75478 cumulative IPC: 2.75539 (Simulation time: 0 hr 0 min 57 sec) 
Heartbeat CPU 0 instructions: 30000002 cycles: 10887326 heartbeat IPC: 2.7557 cumulative IPC: 2.7555 (Simulation time: 0 hr 1 min 22 sec) 
Heartbeat CPU 0 instructions: 40000002 cycles: 14528214 heartbeat IPC: 2.74658 cumulative IPC: 2.75326 (Simulation time: 0 hr 1 min 46 sec) 
Heartbeat CPU 0 instructions: 50000001 cycles: 18157452 heartbeat IPC: 2.7554 cumulative IPC: 2.75369 (Simulation time: 0 hr 2 min 11 sec) 

Warmup complete CPU 0 instructions: 50000001 cycles: 18157452 (Simulation time: 0 hr 2 min 11 sec) 

Heartbeat CPU 0 instructions: 60000000 cycles: 40121604 heartbeat IPC: 0.455287 cumulative IPC: 0.455287 (Simulation time: 0 hr 2 min 43 sec) 
Heartbeat CPU 0 instructions: 70000002 cycles: 65077852 heartbeat IPC: 0.400701 cumulative IPC: 0.426254 (Simulation time: 0 hr 3 min 15 sec) 
Heartbeat CPU 0 instructions: 80000002 cycles: 87472311 heartbeat IPC: 0.446539 cumulative IPC: 0.432808 (Simulation time: 0 hr 3 min 46 sec) 
Heartbeat CPU 0 instructions: 90000003 cycles: 107308558 heartbeat IPC: 0.504128 cumulative IPC: 0.448676 (Simulation time: 0 hr 4 min 17 sec) 
Heartbeat CPU 0 instructions: 100000002 cycles: 127125134 heartbeat IPC: 0.504628 cumulative IPC: 0.458852 (Simulation time: 0 hr 4 min 50 sec) 
Finished CPU 0 instructions: 50000001 cycles: 108967682 cumulative IPC: 0.458852 (Simulation time: 0 hr 4 min 50 sec) 

ChampSim completed all CPUs

Region of Interest Statistics

CPU 0 cumulative IPC: 0.458852 instructions: 50000001 cycles: 108967682
L1D TOTAL     ACCESS:   19495431  HIT:   17272138  MISS:    2223293
L1D LOAD      ACCESS:    7540629  HIT:    6782848  MISS:     757781
L1D RFO       ACCESS:    5562630  HIT:    4660663  MISS:     901967
L1D PREFETCH  ACCESS:    6392172  HIT:    5828627  MISS:     563545
L1D WRITEBACK ACCESS:          0  HIT:          0  MISS:          0
L1D PREFETCH  REQUESTED:   17054386  ISSUED:   16677429  USEFUL:     613666  USELESS:     699038
L1D AVERAGE MISS LATENCY: 181.511 cycles
L1I TOTAL     ACCESS:    9762468  HIT:    7614631  MISS:    2147837
L1I LOAD      ACCESS:    9762468  HIT:    7614631  MISS:    2147837
L1I RFO       ACCESS:          0  HIT:          0  MISS:          0
L1I PREFETCH  ACCESS:          0  HIT:          0  MISS:          0
L1I WRITEBACK ACCESS:          0  HIT:          0  MISS:          0
L1I PREFETCH  REQUESTED:          0  ISSUED:          0  USEFUL:          0  USELESS:          0
L1I AVERAGE MISS LATENCY: 18.0178 cycles
L2C TOTAL     ACCESS:    7488265  HIT:    5596421  MISS:    1891844
L2C LOAD      ACCESS:    2701206  HIT:    2254088  MISS:     447118
L2C RFO       ACCESS:     901571  HIT:      18337  MISS:     883234
L2C PREFETCH  ACCESS:    2710747  HIT:    2151458  MISS:     559289
L2C WRITEBACK ACCESS:    1174741  HIT:    1172538  MISS:       2203
L2C PREFETCH  REQUESTED:    9820905  ISSUED:    9762170  USEFUL:      43583  USELESS:    1043595
L2C AVERAGE MISS LATENCY: 216.07 cycles
LLC TOTAL     ACCESS:    4229828  HIT:    2579003  MISS:    1650825
LLC LOAD      ACCESS:     446706  HIT:     264278  MISS:     182428
LLC RFO       ACCESS:     883230  HIT:     114315  MISS:     768915
LLC PREFETCH  ACCESS:    1789497  HIT:    1092769  MISS:     696728
LLC WRITEBACK ACCESS:    1110395  HIT:    1107641  MISS:       2754
LLC PREFETCH  REQUESTED:          0  ISSUED:          0  USEFUL:      96718  USELESS:    1108931
LLC AVERAGE MISS LATENCY: 262.483 cycles
Major fault: 0 Minor fault: 25691
CPU 0 L1D next line prefetcher final stats

DRAM Statistics
 CHANNEL 0
 RQ ROW_BUFFER_HIT:     393874  ROW_BUFFER_MISS:    1254015
 DBUS_CONGESTED:    1599307
 WQ ROW_BUFFER_HIT:     269294  ROW_BUFFER_MISS:     665019  FULL:          0

 AVG_CONGESTED_CYCLE: 6

CPU 0 Branch Prediction Accuracy: 99.2186% MPKI: 1.3219 Average ROB Occupancy at Mispredict: 165.13

Branch types
NOT_BRANCH: 41540764 83.0815%
BRANCH_DIRECT_JUMP: 462382 0.924764%
BRANCH_INDIRECT: 45460 0.09092%
BRANCH_CONDITIONAL: 6209273 12.4185%
BRANCH_DIRECT_CALL: 666240 1.33248%
BRANCH_INDIRECT_CALL: 204728 0.409456%
BRANCH_RETURN: 870977 1.74195%
BRANCH_OTHER: 0 0%

