Initialize SIGNATURE TABLE
ST_SET: 1
ST_WAY: 256
ST_TAG_BIT: 16
ST_TAG_MASK: ffff

Initialize PATTERN TABLE
PT_SET: 512
PT_WAY: 4
SIG_DELTA_BIT: 7
C_SIG_BIT: 4
C_DELTA_BIT: 4

Initialize PREFETCH FILTER
FILTER_SET: 1024

*** ChampSim Multicore Out-of-Order Simulator ***

Warmup Instructions: 50000000
Simulation Instructions: 50000000
Number of CPUs: 1
LLC sets: 2048
LLC ways: 16
Off-chip DRAM Size: 4096 MB Channels: 1 Width: 64-bit Data Rate: 3200 MT/s

CPU 0 runs /home/tongjie/ChampSim/ipc1_public/server_027.champsimtrace.xz
CPU 0 L1D next line prefetcher
Heartbeat CPU 0 instructions: 10000001 cycles: 3534690 heartbeat IPC: 2.8291 cumulative IPC: 2.8291 (Simulation time: 0 hr 0 min 23 sec) 
Heartbeat CPU 0 instructions: 20000001 cycles: 7074168 heartbeat IPC: 2.82528 cumulative IPC: 2.82719 (Simulation time: 0 hr 0 min 47 sec) 
Heartbeat CPU 0 instructions: 30000002 cycles: 10607991 heartbeat IPC: 2.8298 cumulative IPC: 2.82806 (Simulation time: 0 hr 1 min 10 sec) 
Heartbeat CPU 0 instructions: 40000000 cycles: 14148423 heartbeat IPC: 2.82451 cumulative IPC: 2.82717 (Simulation time: 0 hr 1 min 34 sec) 
Heartbeat CPU 0 instructions: 50000001 cycles: 17682633 heartbeat IPC: 2.82949 cumulative IPC: 2.82763 (Simulation time: 0 hr 1 min 58 sec) 

Warmup complete CPU 0 instructions: 50000001 cycles: 17682633 (Simulation time: 0 hr 1 min 58 sec) 

Heartbeat CPU 0 instructions: 60000002 cycles: 28750004 heartbeat IPC: 0.903557 cumulative IPC: 0.903557 (Simulation time: 0 hr 2 min 18 sec) 
Heartbeat CPU 0 instructions: 70000003 cycles: 39715048 heartbeat IPC: 0.911989 cumulative IPC: 0.907754 (Simulation time: 0 hr 2 min 38 sec) 
Heartbeat CPU 0 instructions: 80000002 cycles: 50706275 heartbeat IPC: 0.909816 cumulative IPC: 0.90844 (Simulation time: 0 hr 2 min 59 sec) 
Heartbeat CPU 0 instructions: 90000000 cycles: 61757088 heartbeat IPC: 0.904911 cumulative IPC: 0.907555 (Simulation time: 0 hr 3 min 20 sec) 
Heartbeat CPU 0 instructions: 100000002 cycles: 72664156 heartbeat IPC: 0.916837 cumulative IPC: 0.909396 (Simulation time: 0 hr 3 min 39 sec) 
Finished CPU 0 instructions: 50000001 cycles: 54981523 cumulative IPC: 0.909396 (Simulation time: 0 hr 3 min 39 sec) 

ChampSim completed all CPUs

Region of Interest Statistics

CPU 0 cumulative IPC: 0.909396 instructions: 50000001 cycles: 54981523
L1D TOTAL     ACCESS:   22748287  HIT:   21144101  MISS:    1604186
L1D LOAD      ACCESS:    8313398  HIT:    7636432  MISS:     676966
L1D RFO       ACCESS:    6383948  HIT:    6097843  MISS:     286105
L1D PREFETCH  ACCESS:    8050941  HIT:    7409826  MISS:     641115
L1D WRITEBACK ACCESS:          0  HIT:          0  MISS:          0
L1D PREFETCH  REQUESTED:   17873061  ISSUED:   17593203  USEFUL:     342921  USELESS:     951025
L1D AVERAGE MISS LATENCY: 22.7281 cycles
L1I TOTAL     ACCESS:    9343159  HIT:    6588766  MISS:    2754393
L1I LOAD      ACCESS:    9343159  HIT:    6588766  MISS:    2754393
L1I RFO       ACCESS:          0  HIT:          0  MISS:          0
L1I PREFETCH  ACCESS:          0  HIT:          0  MISS:          0
L1I WRITEBACK ACCESS:          0  HIT:          0  MISS:          0
L1I PREFETCH  REQUESTED:          0  ISSUED:          0  USEFUL:          0  USELESS:          0
L1I AVERAGE MISS LATENCY: 18.8671 cycles
L2C TOTAL     ACCESS:    7130873  HIT:    6374950  MISS:     755923
L2C LOAD      ACCESS:    3386676  HIT:    2844381  MISS:     542295
L2C RFO       ACCESS:     283262  HIT:     201022  MISS:      82240
L2C PREFETCH  ACCESS:    2901529  HIT:    2772944  MISS:     128585
L2C WRITEBACK ACCESS:     559406  HIT:     556603  MISS:       2803
L2C PREFETCH  REQUESTED:    8427095  ISSUED:    8318522  USEFUL:      22225  USELESS:     234660
L2C AVERAGE MISS LATENCY: 35.7547 cycles
LLC TOTAL     ACCESS:    2314153  HIT:    2281615  MISS:      32538
LLC LOAD      ACCESS:     541935  HIT:     537552  MISS:       4383
LLC RFO       ACCESS:      82156  HIT:      68219  MISS:      13937
LLC PREFETCH  ACCESS:    1553996  HIT:    1539973  MISS:      14023
LLC WRITEBACK ACCESS:     136066  HIT:     135871  MISS:        195
LLC PREFETCH  REQUESTED:          0  ISSUED:          0  USEFUL:       5186  USELESS:      21598
LLC AVERAGE MISS LATENCY: 179.182 cycles
Major fault: 0 Minor fault: 2477
CPU 0 L1D next line prefetcher final stats

DRAM Statistics
 CHANNEL 0
 RQ ROW_BUFFER_HIT:      11296  ROW_BUFFER_MISS:      21044
 DBUS_CONGESTED:      22387
 WQ ROW_BUFFER_HIT:       1467  ROW_BUFFER_MISS:      13918  FULL:          0

 AVG_CONGESTED_CYCLE: 6

CPU 0 Branch Prediction Accuracy: 99.8082% MPKI: 0.35064 Average ROB Occupancy at Mispredict: 71.7963

Branch types
NOT_BRANCH: 40857228 81.7145%
BRANCH_DIRECT_JUMP: 526631 1.05326%
BRANCH_INDIRECT: 205902 0.411804%
BRANCH_CONDITIONAL: 6184014 12.368%
BRANCH_DIRECT_CALL: 938462 1.87692%
BRANCH_INDIRECT_CALL: 174486 0.348972%
BRANCH_RETURN: 1112951 2.2259%
BRANCH_OTHER: 0 0%

