Initialize SIGNATURE TABLE
ST_SET: 1
ST_WAY: 256
ST_TAG_BIT: 16
ST_TAG_MASK: ffff

Initialize PATTERN TABLE
PT_SET: 512
PT_WAY: 4
SIG_DELTA_BIT: 7
C_SIG_BIT: 4
C_DELTA_BIT: 4

Initialize PREFETCH FILTER
FILTER_SET: 1024

*** ChampSim Multicore Out-of-Order Simulator ***

Warmup Instructions: 50000000
Simulation Instructions: 50000000
Number of CPUs: 1
LLC sets: 2048
LLC ways: 16
Off-chip DRAM Size: 4096 MB Channels: 1 Width: 64-bit Data Rate: 3200 MT/s

CPU 0 runs /home/tongjie/ChampSim/ipc1_public/server_038.champsimtrace.xz
CPU 0 L1D next line prefetcher
Heartbeat CPU 0 instructions: 10000001 cycles: 3326325 heartbeat IPC: 3.00632 cumulative IPC: 3.00632 (Simulation time: 0 hr 0 min 25 sec) 
Heartbeat CPU 0 instructions: 20000003 cycles: 6655853 heartbeat IPC: 3.00343 cumulative IPC: 3.00487 (Simulation time: 0 hr 0 min 49 sec) 
Heartbeat CPU 0 instructions: 30000003 cycles: 9981042 heartbeat IPC: 3.00735 cumulative IPC: 3.0057 (Simulation time: 0 hr 1 min 12 sec) 
Heartbeat CPU 0 instructions: 40000001 cycles: 13311072 heartbeat IPC: 3.00298 cumulative IPC: 3.00502 (Simulation time: 0 hr 1 min 36 sec) 
Heartbeat CPU 0 instructions: 50000001 cycles: 16638935 heartbeat IPC: 3.00493 cumulative IPC: 3.005 (Simulation time: 0 hr 2 min 0 sec) 

Warmup complete CPU 0 instructions: 50000001 cycles: 16638935 (Simulation time: 0 hr 2 min 0 sec) 

Heartbeat CPU 0 instructions: 60000001 cycles: 27301631 heartbeat IPC: 0.937849 cumulative IPC: 0.937849 (Simulation time: 0 hr 2 min 19 sec) 
Heartbeat CPU 0 instructions: 70000000 cycles: 37925981 heartbeat IPC: 0.941234 cumulative IPC: 0.939538 (Simulation time: 0 hr 2 min 39 sec) 
Heartbeat CPU 0 instructions: 80000000 cycles: 48557005 heartbeat IPC: 0.940643 cumulative IPC: 0.939906 (Simulation time: 0 hr 2 min 58 sec) 
Heartbeat CPU 0 instructions: 90000001 cycles: 59195335 heartbeat IPC: 0.939997 cumulative IPC: 0.939929 (Simulation time: 0 hr 3 min 16 sec) 
*** Reached end of trace for Core: 0 Repeating trace: /home/tongjie/ChampSim/ipc1_public/server_038.champsimtrace.xz
Heartbeat CPU 0 instructions: 100000002 cycles: 69854805 heartbeat IPC: 0.938133 cumulative IPC: 0.939569 (Simulation time: 0 hr 3 min 35 sec) 
Finished CPU 0 instructions: 50000001 cycles: 53215870 cumulative IPC: 0.939569 (Simulation time: 0 hr 3 min 35 sec) 

ChampSim completed all CPUs

Region of Interest Statistics

CPU 0 cumulative IPC: 0.939569 instructions: 50000001 cycles: 53215870
L1D TOTAL     ACCESS:   22124898  HIT:   21139411  MISS:     985487
L1D LOAD      ACCESS:    7994615  HIT:    7505080  MISS:     489535
L1D RFO       ACCESS:    6295338  HIT:    6226216  MISS:      69122
L1D PREFETCH  ACCESS:    7834945  HIT:    7408115  MISS:     426830
L1D WRITEBACK ACCESS:          0  HIT:          0  MISS:          0
L1D PREFETCH  REQUESTED:   17116833  ISSUED:   16765001  USEFUL:     237613  USELESS:     622205
L1D AVERAGE MISS LATENCY: 29.0718 cycles
L1I TOTAL     ACCESS:    9459836  HIT:    5419582  MISS:    4040254
L1I LOAD      ACCESS:    9459836  HIT:    5419582  MISS:    4040254
L1I RFO       ACCESS:          0  HIT:          0  MISS:          0
L1I PREFETCH  ACCESS:          0  HIT:          0  MISS:          0
L1I WRITEBACK ACCESS:          0  HIT:          0  MISS:          0
L1I PREFETCH  REQUESTED:          0  ISSUED:          0  USEFUL:          0  USELESS:          0
L1I AVERAGE MISS LATENCY: 14.2289 cycles
L2C TOTAL     ACCESS:    9295387  HIT:    8971923  MISS:     323464
L2C LOAD      ACCESS:    4524461  HIT:    4374720  MISS:     149741
L2C RFO       ACCESS:      68930  HIT:      40255  MISS:      28675
L2C PREFETCH  ACCESS:    4409284  HIT:    4264989  MISS:     144295
L2C WRITEBACK ACCESS:     292712  HIT:     291959  MISS:        753
L2C PREFETCH  REQUESTED:   11485631  ISSUED:   11450132  USEFUL:      13099  USELESS:     271911
L2C AVERAGE MISS LATENCY: 45.191 cycles
LLC TOTAL     ACCESS:    1774739  HIT:    1722407  MISS:      52332
LLC LOAD      ACCESS:     149708  HIT:     136292  MISS:      13416
LLC RFO       ACCESS:      28675  HIT:      23419  MISS:       5256
LLC PREFETCH  ACCESS:    1450260  HIT:    1417014  MISS:      33246
LLC WRITEBACK ACCESS:     146096  HIT:     145682  MISS:        414
LLC PREFETCH  REQUESTED:          0  ISSUED:          0  USEFUL:       7444  USELESS:      49348
LLC AVERAGE MISS LATENCY: 164.339 cycles
Major fault: 0 Minor fault: 5526
CPU 0 L1D next line prefetcher final stats

DRAM Statistics
 CHANNEL 0
 RQ ROW_BUFFER_HIT:       7885  ROW_BUFFER_MISS:      44029
 DBUS_CONGESTED:      23658
 WQ ROW_BUFFER_HIT:       1301  ROW_BUFFER_MISS:      10976  FULL:          0

 AVG_CONGESTED_CYCLE: 5

CPU 0 Branch Prediction Accuracy: 99.9279% MPKI: 0.12968 Average ROB Occupancy at Mispredict: 31.86

Branch types
NOT_BRANCH: 41006079 82.0122%
BRANCH_DIRECT_JUMP: 541911 1.08382%
BRANCH_INDIRECT: 59690 0.11938%
BRANCH_CONDITIONAL: 5915821 11.8316%
BRANCH_DIRECT_CALL: 1003581 2.00716%
BRANCH_INDIRECT_CALL: 234499 0.468998%
BRANCH_RETURN: 1238061 2.47612%
BRANCH_OTHER: 0 0%

