Initialize SIGNATURE TABLE
ST_SET: 1
ST_WAY: 256
ST_TAG_BIT: 16
ST_TAG_MASK: ffff

Initialize PATTERN TABLE
PT_SET: 512
PT_WAY: 4
SIG_DELTA_BIT: 7
C_SIG_BIT: 4
C_DELTA_BIT: 4

Initialize PREFETCH FILTER
FILTER_SET: 1024

*** ChampSim Multicore Out-of-Order Simulator ***

Warmup Instructions: 50000000
Simulation Instructions: 50000000
Number of CPUs: 1
LLC sets: 2048
LLC ways: 16
Off-chip DRAM Size: 4096 MB Channels: 1 Width: 64-bit Data Rate: 3200 MT/s

CPU 0 runs /home/tongjie/ChampSim/ipc1_public/server_036.champsimtrace.xz
CPU 0 L1D next line prefetcher
Heartbeat CPU 0 instructions: 10000000 cycles: 3459066 heartbeat IPC: 2.89095 cumulative IPC: 2.89095 (Simulation time: 0 hr 0 min 26 sec) 
Heartbeat CPU 0 instructions: 20000000 cycles: 6924961 heartbeat IPC: 2.88526 cumulative IPC: 2.8881 (Simulation time: 0 hr 0 min 51 sec) 
Heartbeat CPU 0 instructions: 30000003 cycles: 10433159 heartbeat IPC: 2.85047 cumulative IPC: 2.87545 (Simulation time: 0 hr 1 min 18 sec) 
Heartbeat CPU 0 instructions: 40000000 cycles: 13895688 heartbeat IPC: 2.88806 cumulative IPC: 2.87859 (Simulation time: 0 hr 1 min 45 sec) 
Heartbeat CPU 0 instructions: 50000002 cycles: 17357411 heartbeat IPC: 2.88874 cumulative IPC: 2.88061 (Simulation time: 0 hr 2 min 10 sec) 

Warmup complete CPU 0 instructions: 50000002 cycles: 17357411 (Simulation time: 0 hr 2 min 10 sec) 

Heartbeat CPU 0 instructions: 60000002 cycles: 28212606 heartbeat IPC: 0.921218 cumulative IPC: 0.921218 (Simulation time: 0 hr 2 min 30 sec) 
Heartbeat CPU 0 instructions: 70000001 cycles: 39013256 heartbeat IPC: 0.92587 cumulative IPC: 0.923538 (Simulation time: 0 hr 2 min 48 sec) 
Heartbeat CPU 0 instructions: 80000000 cycles: 49823462 heartbeat IPC: 0.925052 cumulative IPC: 0.924042 (Simulation time: 0 hr 3 min 8 sec) 
Heartbeat CPU 0 instructions: 90000002 cycles: 60624873 heartbeat IPC: 0.925805 cumulative IPC: 0.924482 (Simulation time: 0 hr 3 min 27 sec) 
Heartbeat CPU 0 instructions: 100000001 cycles: 71425109 heartbeat IPC: 0.925906 cumulative IPC: 0.924767 (Simulation time: 0 hr 3 min 47 sec) 
Finished CPU 0 instructions: 50000003 cycles: 54067699 cumulative IPC: 0.924767 (Simulation time: 0 hr 3 min 47 sec) 

ChampSim completed all CPUs

Region of Interest Statistics

CPU 0 cumulative IPC: 0.924767 instructions: 50000003 cycles: 54067699
L1D TOTAL     ACCESS:   24437021  HIT:   24374644  MISS:      62377
L1D LOAD      ACCESS:    8563677  HIT:    8528709  MISS:      34968
L1D RFO       ACCESS:    7440345  HIT:    7433078  MISS:       7267
L1D PREFETCH  ACCESS:    8432999  HIT:    8412857  MISS:      20142
L1D WRITEBACK ACCESS:          0  HIT:          0  MISS:          0
L1D PREFETCH  REQUESTED:   17809525  ISSUED:   17450518  USEFUL:      23610  USELESS:      36390
L1D AVERAGE MISS LATENCY: 17.0703 cycles
L1I TOTAL     ACCESS:    9093535  HIT:    5272743  MISS:    3820792
L1I LOAD      ACCESS:    9093535  HIT:    5272743  MISS:    3820792
L1I RFO       ACCESS:          0  HIT:          0  MISS:          0
L1I PREFETCH  ACCESS:          0  HIT:          0  MISS:          0
L1I WRITEBACK ACCESS:          0  HIT:          0  MISS:          0
L1I PREFETCH  REQUESTED:          0  ISSUED:          0  USEFUL:          0  USELESS:          0
L1I AVERAGE MISS LATENCY: 14.0795 cycles
L2C TOTAL     ACCESS:    7368518  HIT:    7366418  MISS:       2100
L2C LOAD      ACCESS:    3855599  HIT:    3854792  MISS:        807
L2C RFO       ACCESS:       7261  HIT:       7204  MISS:         57
L2C PREFETCH  ACCESS:    3490018  HIT:    3488797  MISS:       1221
L2C WRITEBACK ACCESS:      15640  HIT:      15625  MISS:         15
L2C PREFETCH  REQUESTED:   11057148  ISSUED:   11056919  USEFUL:        984  USELESS:      19828
L2C AVERAGE MISS LATENCY: 105.19 cycles
LLC TOTAL     ACCESS:    1140330  HIT:    1137850  MISS:       2480
LLC LOAD      ACCESS:        804  HIT:        314  MISS:        490
LLC RFO       ACCESS:         57  HIT:         28  MISS:         29
LLC PREFETCH  ACCESS:    1138542  HIT:    1136586  MISS:       1956
LLC WRITEBACK ACCESS:        927  HIT:        922  MISS:          5
LLC PREFETCH  REQUESTED:          0  ISSUED:          0  USEFUL:       9520  USELESS:      13236
LLC AVERAGE MISS LATENCY: 188.843 cycles
Major fault: 0 Minor fault: 1926
CPU 0 L1D next line prefetcher final stats

DRAM Statistics
 CHANNEL 0
 RQ ROW_BUFFER_HIT:        475  ROW_BUFFER_MISS:       2000
 DBUS_CONGESTED:       1419
 WQ ROW_BUFFER_HIT:        370  ROW_BUFFER_MISS:       1208  FULL:          0

 AVG_CONGESTED_CYCLE: 6

CPU 0 Branch Prediction Accuracy: 99.8717% MPKI: 0.21174 Average ROB Occupancy at Mispredict: 142.377

Branch types
NOT_BRANCH: 41748421 83.4968%
BRANCH_DIRECT_JUMP: 468563 0.937126%
BRANCH_INDIRECT: 0 0%
BRANCH_CONDITIONAL: 5599749 11.1995%
BRANCH_DIRECT_CALL: 885105 1.77021%
BRANCH_INDIRECT_CALL: 206338 0.412676%
BRANCH_RETURN: 1091467 2.18293%
BRANCH_OTHER: 0 0%

