Initialize SIGNATURE TABLE
ST_SET: 1
ST_WAY: 256
ST_TAG_BIT: 16
ST_TAG_MASK: ffff

Initialize PATTERN TABLE
PT_SET: 512
PT_WAY: 4
SIG_DELTA_BIT: 7
C_SIG_BIT: 4
C_DELTA_BIT: 4

Initialize PREFETCH FILTER
FILTER_SET: 1024

*** ChampSim Multicore Out-of-Order Simulator ***

Warmup Instructions: 50000000
Simulation Instructions: 50000000
Number of CPUs: 1
LLC sets: 2048
LLC ways: 16
Off-chip DRAM Size: 4096 MB Channels: 1 Width: 64-bit Data Rate: 3200 MT/s

CPU 0 runs /home/tongjie/ChampSim/ipc1_public/server_014.champsimtrace.xz
CPU 0 L1D next line prefetcher
Heartbeat CPU 0 instructions: 10000003 cycles: 3519546 heartbeat IPC: 2.84128 cumulative IPC: 2.84128 (Simulation time: 0 hr 0 min 24 sec) 
Heartbeat CPU 0 instructions: 20000000 cycles: 7106373 heartbeat IPC: 2.78798 cumulative IPC: 2.81438 (Simulation time: 0 hr 0 min 48 sec) 
Heartbeat CPU 0 instructions: 30000001 cycles: 10647912 heartbeat IPC: 2.82363 cumulative IPC: 2.81745 (Simulation time: 0 hr 1 min 13 sec) 
Heartbeat CPU 0 instructions: 40000003 cycles: 14196130 heartbeat IPC: 2.81832 cumulative IPC: 2.81767 (Simulation time: 0 hr 1 min 37 sec) 
Heartbeat CPU 0 instructions: 50000000 cycles: 17744805 heartbeat IPC: 2.81795 cumulative IPC: 2.81773 (Simulation time: 0 hr 2 min 2 sec) 

Warmup complete CPU 0 instructions: 50000001 cycles: 17744806 (Simulation time: 0 hr 2 min 2 sec) 

Heartbeat CPU 0 instructions: 60000000 cycles: 25952619 heartbeat IPC: 1.21835 cumulative IPC: 1.21835 (Simulation time: 0 hr 2 min 21 sec) 
Heartbeat CPU 0 instructions: 70000000 cycles: 34155718 heartbeat IPC: 1.21905 cumulative IPC: 1.2187 (Simulation time: 0 hr 2 min 40 sec) 
*** Reached end of trace for Core: 0 Repeating trace: /home/tongjie/ChampSim/ipc1_public/server_014.champsimtrace.xz
Heartbeat CPU 0 instructions: 80000001 cycles: 42109947 heartbeat IPC: 1.25719 cumulative IPC: 1.23127 (Simulation time: 0 hr 3 min 1 sec) 
Heartbeat CPU 0 instructions: 90000003 cycles: 51579358 heartbeat IPC: 1.05603 cumulative IPC: 1.18222 (Simulation time: 0 hr 3 min 20 sec) 
Heartbeat CPU 0 instructions: 100000000 cycles: 59967868 heartbeat IPC: 1.19211 cumulative IPC: 1.18419 (Simulation time: 0 hr 3 min 38 sec) 
Finished CPU 0 instructions: 50000000 cycles: 42223064 cumulative IPC: 1.18419 (Simulation time: 0 hr 3 min 38 sec) 

ChampSim completed all CPUs

Region of Interest Statistics

CPU 0 cumulative IPC: 1.18419 instructions: 50000000 cycles: 42223064
L1D TOTAL     ACCESS:   23227898  HIT:   23157033  MISS:      70865
L1D LOAD      ACCESS:    7454696  HIT:    7427887  MISS:      26809
L1D RFO       ACCESS:    8435036  HIT:    8402946  MISS:      32090
L1D PREFETCH  ACCESS:    7338166  HIT:    7326200  MISS:      11966
L1D WRITEBACK ACCESS:          0  HIT:          0  MISS:          0
L1D PREFETCH  REQUESTED:   16543224  ISSUED:   16305069  USEFUL:      16984  USELESS:      16517
L1D AVERAGE MISS LATENCY: 225.95 cycles
L1I TOTAL     ACCESS:    9641386  HIT:    8130837  MISS:    1510549
L1I LOAD      ACCESS:    9641386  HIT:    8130837  MISS:    1510549
L1I RFO       ACCESS:          0  HIT:          0  MISS:          0
L1I PREFETCH  ACCESS:          0  HIT:          0  MISS:          0
L1I WRITEBACK ACCESS:          0  HIT:          0  MISS:          0
L1I PREFETCH  REQUESTED:          0  ISSUED:          0  USEFUL:          0  USELESS:          0
L1I AVERAGE MISS LATENCY: 14.7964 cycles
L2C TOTAL     ACCESS:    2887257  HIT:    2817363  MISS:      69894
L2C LOAD      ACCESS:    1532765  HIT:    1505796  MISS:      26969
L2C RFO       ACCESS:      32038  HIT:       1131  MISS:      30907
L2C PREFETCH  ACCESS:    1284087  HIT:    1272081  MISS:      12006
L2C WRITEBACK ACCESS:      38367  HIT:      38355  MISS:         12
L2C PREFETCH  REQUESTED:    4239645  ISSUED:    4239329  USEFUL:       1443  USELESS:      30403
L2C AVERAGE MISS LATENCY: 248.872 cycles
LLC TOTAL     ACCESS:     473192  HIT:     408401  MISS:      64791
LLC LOAD      ACCESS:      25766  HIT:      10009  MISS:      15757
LLC RFO       ACCESS:      30907  HIT:       4570  MISS:      26337
LLC PREFETCH  ACCESS:     381725  HIT:     359143  MISS:      22582
LLC WRITEBACK ACCESS:      34794  HIT:      34679  MISS:        115
LLC PREFETCH  REQUESTED:          0  ISSUED:          0  USEFUL:      13777  USELESS:      31781
LLC AVERAGE MISS LATENCY: 294.686 cycles
Major fault: 0 Minor fault: 1911
CPU 0 L1D next line prefetcher final stats

DRAM Statistics
 CHANNEL 0
 RQ ROW_BUFFER_HIT:      27539  ROW_BUFFER_MISS:      37134
 DBUS_CONGESTED:      65646
 WQ ROW_BUFFER_HIT:       9589  ROW_BUFFER_MISS:      23072  FULL:          0

 AVG_CONGESTED_CYCLE: 6

CPU 0 Branch Prediction Accuracy: 99.7719% MPKI: 0.38824 Average ROB Occupancy at Mispredict: 55.7766

Branch types
NOT_BRANCH: 41488790 82.9776%
BRANCH_DIRECT_JUMP: 449415 0.89883%
BRANCH_INDIRECT: 2330 0.00466%
BRANCH_CONDITIONAL: 5470000 10.94%
BRANCH_DIRECT_CALL: 1172177 2.34435%
BRANCH_INDIRECT_CALL: 122383 0.244766%
BRANCH_RETURN: 1294544 2.58909%
BRANCH_OTHER: 0 0%

