Initialize SIGNATURE TABLE
ST_SET: 1
ST_WAY: 256
ST_TAG_BIT: 16
ST_TAG_MASK: ffff

Initialize PATTERN TABLE
PT_SET: 512
PT_WAY: 4
SIG_DELTA_BIT: 7
C_SIG_BIT: 4
C_DELTA_BIT: 4

Initialize PREFETCH FILTER
FILTER_SET: 1024

*** ChampSim Multicore Out-of-Order Simulator ***

Warmup Instructions: 50000000
Simulation Instructions: 50000000
Number of CPUs: 1
LLC sets: 2048
LLC ways: 16
Off-chip DRAM Size: 4096 MB Channels: 1 Width: 64-bit Data Rate: 3200 MT/s

CPU 0 runs /home/tongjie/ChampSim/ipc1_public/server_018.champsimtrace.xz
CPU 0 L1D next line prefetcher
Heartbeat CPU 0 instructions: 10000003 cycles: 3621908 heartbeat IPC: 2.76098 cumulative IPC: 2.76098 (Simulation time: 0 hr 0 min 25 sec) 
Heartbeat CPU 0 instructions: 20000001 cycles: 7248697 heartbeat IPC: 2.75726 cumulative IPC: 2.75912 (Simulation time: 0 hr 0 min 56 sec) 
Heartbeat CPU 0 instructions: 30000003 cycles: 10727789 heartbeat IPC: 2.87431 cumulative IPC: 2.79648 (Simulation time: 0 hr 1 min 21 sec) 
Heartbeat CPU 0 instructions: 40000000 cycles: 14243968 heartbeat IPC: 2.844 cumulative IPC: 2.80821 (Simulation time: 0 hr 1 min 44 sec) 
Heartbeat CPU 0 instructions: 50000003 cycles: 17866743 heartbeat IPC: 2.76032 cumulative IPC: 2.7985 (Simulation time: 0 hr 2 min 9 sec) 

Warmup complete CPU 0 instructions: 50000003 cycles: 17866743 (Simulation time: 0 hr 2 min 9 sec) 

Heartbeat CPU 0 instructions: 60000000 cycles: 37463037 heartbeat IPC: 0.5103 cumulative IPC: 0.5103 (Simulation time: 0 hr 2 min 39 sec) 
Heartbeat CPU 0 instructions: 70000001 cycles: 57139339 heartbeat IPC: 0.508226 cumulative IPC: 0.509261 (Simulation time: 0 hr 3 min 10 sec) 
Heartbeat CPU 0 instructions: 80000001 cycles: 76702058 heartbeat IPC: 0.511176 cumulative IPC: 0.509898 (Simulation time: 0 hr 3 min 41 sec) 
Heartbeat CPU 0 instructions: 90000002 cycles: 96320792 heartbeat IPC: 0.509717 cumulative IPC: 0.509853 (Simulation time: 0 hr 4 min 12 sec) 
Heartbeat CPU 0 instructions: 100000001 cycles: 115918270 heartbeat IPC: 0.51027 cumulative IPC: 0.509936 (Simulation time: 0 hr 4 min 46 sec) 
Finished CPU 0 instructions: 50000002 cycles: 98051528 cumulative IPC: 0.509936 (Simulation time: 0 hr 4 min 46 sec) 

ChampSim completed all CPUs

Region of Interest Statistics

CPU 0 cumulative IPC: 0.509936 instructions: 50000002 cycles: 98051528
L1D TOTAL     ACCESS:   19944754  HIT:   17727215  MISS:    2217539
L1D LOAD      ACCESS:    7671290  HIT:    6941699  MISS:     729591
L1D RFO       ACCESS:    5857763  HIT:    4905485  MISS:     952278
L1D PREFETCH  ACCESS:    6415701  HIT:    5880031  MISS:     535670
L1D WRITEBACK ACCESS:          0  HIT:          0  MISS:          0
L1D PREFETCH  REQUESTED:   16945010  ISSUED:   16573531  USEFUL:     585069  USELESS:     709380
L1D AVERAGE MISS LATENCY: 170.622 cycles
L1I TOTAL     ACCESS:    9993861  HIT:    7596710  MISS:    2397151
L1I LOAD      ACCESS:    9993861  HIT:    7596710  MISS:    2397151
L1I RFO       ACCESS:          0  HIT:          0  MISS:          0
L1I PREFETCH  ACCESS:          0  HIT:          0  MISS:          0
L1I WRITEBACK ACCESS:          0  HIT:          0  MISS:          0
L1I PREFETCH  REQUESTED:          0  ISSUED:          0  USEFUL:          0  USELESS:          0
L1I AVERAGE MISS LATENCY: 17.358 cycles
L2C TOTAL     ACCESS:    7919388  HIT:    6056956  MISS:    1862432
L2C LOAD      ACCESS:    2896077  HIT:    2506291  MISS:     389786
L2C RFO       ACCESS:     951805  HIT:      20315  MISS:     931490
L2C PREFETCH  ACCESS:    2901405  HIT:    2362978  MISS:     538427
L2C WRITEBACK ACCESS:    1170101  HIT:    1167372  MISS:       2729
L2C PREFETCH  REQUESTED:    9519255  ISSUED:    9466694  USEFUL:      45603  USELESS:    1051826
L2C AVERAGE MISS LATENCY: 207.544 cycles
LLC TOTAL     ACCESS:    4073857  HIT:    2643810  MISS:    1430047
LLC LOAD      ACCESS:     389441  HIT:     278265  MISS:     111176
LLC RFO       ACCESS:     931488  HIT:     137249  MISS:     794239
LLC PREFETCH  ACCESS:    1652191  HIT:    1129566  MISS:     522625
LLC WRITEBACK ACCESS:    1100737  HIT:    1098730  MISS:       2007
LLC PREFETCH  REQUESTED:          0  ISSUED:          0  USEFUL:      95063  USELESS:    1073588
LLC AVERAGE MISS LATENCY: 269.035 cycles
Major fault: 0 Minor fault: 22442
CPU 0 L1D next line prefetcher final stats

DRAM Statistics
 CHANNEL 0
 RQ ROW_BUFFER_HIT:     406565  ROW_BUFFER_MISS:    1021266
 DBUS_CONGESTED:    1405398
 WQ ROW_BUFFER_HIT:     263816  ROW_BUFFER_MISS:     627762  FULL:          0

 AVG_CONGESTED_CYCLE: 6

CPU 0 Branch Prediction Accuracy: 99.7114% MPKI: 0.47678 Average ROB Occupancy at Mispredict: 177.373

Branch types
NOT_BRANCH: 41741008 83.482%
BRANCH_DIRECT_JUMP: 458652 0.917304%
BRANCH_INDIRECT: 48282 0.096564%
BRANCH_CONDITIONAL: 5930881 11.8618%
BRANCH_DIRECT_CALL: 744230 1.48846%
BRANCH_INDIRECT_CALL: 166336 0.332672%
BRANCH_RETURN: 910589 1.82118%
BRANCH_OTHER: 0 0%

