Initialize SIGNATURE TABLE
ST_SET: 1
ST_WAY: 256
ST_TAG_BIT: 16
ST_TAG_MASK: ffff

Initialize PATTERN TABLE
PT_SET: 512
PT_WAY: 4
SIG_DELTA_BIT: 7
C_SIG_BIT: 4
C_DELTA_BIT: 4

Initialize PREFETCH FILTER
FILTER_SET: 1024

*** ChampSim Multicore Out-of-Order Simulator ***

Warmup Instructions: 50000000
Simulation Instructions: 50000000
Number of CPUs: 1
LLC sets: 2048
LLC ways: 16
Off-chip DRAM Size: 4096 MB Channels: 1 Width: 64-bit Data Rate: 3200 MT/s

CPU 0 runs /home/tongjie/ChampSim/ipc1_public/server_003.champsimtrace.xz
CPU 0 L1D next line prefetcher
Heartbeat CPU 0 instructions: 10000002 cycles: 3225034 heartbeat IPC: 3.10074 cumulative IPC: 3.10074 (Simulation time: 0 hr 0 min 24 sec) 
Heartbeat CPU 0 instructions: 20000000 cycles: 6544759 heartbeat IPC: 3.0123 cumulative IPC: 3.05588 (Simulation time: 0 hr 0 min 48 sec) 
Heartbeat CPU 0 instructions: 30000000 cycles: 9756350 heartbeat IPC: 3.11372 cumulative IPC: 3.07492 (Simulation time: 0 hr 1 min 11 sec) 
Heartbeat CPU 0 instructions: 40000001 cycles: 13173022 heartbeat IPC: 2.92683 cumulative IPC: 3.03651 (Simulation time: 0 hr 1 min 34 sec) 
Heartbeat CPU 0 instructions: 50000003 cycles: 16891569 heartbeat IPC: 2.68922 cumulative IPC: 2.96006 (Simulation time: 0 hr 1 min 57 sec) 

Warmup complete CPU 0 instructions: 50000003 cycles: 16891569 (Simulation time: 0 hr 1 min 57 sec) 

Heartbeat CPU 0 instructions: 60000000 cycles: 27205740 heartbeat IPC: 0.96954 cumulative IPC: 0.96954 (Simulation time: 0 hr 2 min 19 sec) 
Heartbeat CPU 0 instructions: 70000003 cycles: 37356009 heartbeat IPC: 0.985196 cumulative IPC: 0.977305 (Simulation time: 0 hr 2 min 39 sec) 
Heartbeat CPU 0 instructions: 80000000 cycles: 50516869 heartbeat IPC: 0.759829 cumulative IPC: 0.892185 (Simulation time: 0 hr 3 min 1 sec) 
Heartbeat CPU 0 instructions: 90000003 cycles: 64022761 heartbeat IPC: 0.740418 cumulative IPC: 0.848695 (Simulation time: 0 hr 3 min 28 sec) 
Heartbeat CPU 0 instructions: 100000003 cycles: 78043670 heartbeat IPC: 0.713221 cumulative IPC: 0.817633 (Simulation time: 0 hr 3 min 50 sec) 
Finished CPU 0 instructions: 50000000 cycles: 61152101 cumulative IPC: 0.817633 (Simulation time: 0 hr 3 min 50 sec) 

ChampSim completed all CPUs

Region of Interest Statistics

CPU 0 cumulative IPC: 0.817633 instructions: 50000000 cycles: 61152101
L1D TOTAL     ACCESS:   20645810  HIT:   19503972  MISS:    1141838
L1D LOAD      ACCESS:    8157088  HIT:    7632801  MISS:     524287
L1D RFO       ACCESS:    4581066  HIT:    4463821  MISS:     117245
L1D PREFETCH  ACCESS:    7907656  HIT:    7407350  MISS:     500306
L1D WRITEBACK ACCESS:          0  HIT:          0  MISS:          0
L1D PREFETCH  REQUESTED:   18106704  ISSUED:   17884852  USEFUL:     328436  USELESS:     691088
L1D AVERAGE MISS LATENCY: 52.4575 cycles
L1I TOTAL     ACCESS:    9309421  HIT:    8458493  MISS:     850928
L1I LOAD      ACCESS:    9309421  HIT:    8458493  MISS:     850928
L1I RFO       ACCESS:          0  HIT:          0  MISS:          0
L1I PREFETCH  ACCESS:          0  HIT:          0  MISS:          0
L1I WRITEBACK ACCESS:          0  HIT:          0  MISS:          0
L1I PREFETCH  REQUESTED:          0  ISSUED:          0  USEFUL:          0  USELESS:          0
L1I AVERAGE MISS LATENCY: 37.4471 cycles
L2C TOTAL     ACCESS:    3050249  HIT:    2139001  MISS:     911248
L2C LOAD      ACCESS:    1352292  HIT:     781356  MISS:     570936
L2C RFO       ACCESS:     114522  HIT:      42383  MISS:      72139
L2C PREFETCH  ACCESS:    1299113  HIT:    1031558  MISS:     267555
L2C WRITEBACK ACCESS:     284322  HIT:     283704  MISS:        618
L2C PREFETCH  REQUESTED:    5048829  ISSUED:    4978920  USEFUL:      99642  USELESS:     449127
L2C AVERAGE MISS LATENCY: 70.4075 cycles
LLC TOTAL     ACCESS:    2088957  HIT:    1696494  MISS:     392463
LLC LOAD      ACCESS:     554683  HIT:     444670  MISS:     110013
LLC RFO       ACCESS:      72139  HIT:      30821  MISS:      41318
LLC PREFETCH  ACCESS:    1301690  HIT:    1062553  MISS:     239137
LLC WRITEBACK ACCESS:     160445  HIT:     158450  MISS:       1995
LLC PREFETCH  REQUESTED:          0  ISSUED:          0  USEFUL:     117673  USELESS:     288078
LLC AVERAGE MISS LATENCY: 169.889 cycles
Major fault: 0 Minor fault: 7768
CPU 0 L1D next line prefetcher final stats

DRAM Statistics
 CHANNEL 0
 RQ ROW_BUFFER_HIT:      88310  ROW_BUFFER_MISS:     302126
 DBUS_CONGESTED:     180064
 WQ ROW_BUFFER_HIT:      25372  ROW_BUFFER_MISS:      79475  FULL:          0

 AVG_CONGESTED_CYCLE: 5

CPU 0 Branch Prediction Accuracy: 95.439% MPKI: 9.02702 Average ROB Occupancy at Mispredict: 51.3958

Branch types
NOT_BRANCH: 40103949 80.2079%
BRANCH_DIRECT_JUMP: 497927 0.995854%
BRANCH_INDIRECT: 130586 0.261172%
BRANCH_CONDITIONAL: 7219001 14.438%
BRANCH_DIRECT_CALL: 625806 1.25161%
BRANCH_INDIRECT_CALL: 389785 0.77957%
BRANCH_RETURN: 1032744 2.06549%
BRANCH_OTHER: 0 0%

