Initialize SIGNATURE TABLE
ST_SET: 1
ST_WAY: 256
ST_TAG_BIT: 16
ST_TAG_MASK: ffff

Initialize PATTERN TABLE
PT_SET: 512
PT_WAY: 4
SIG_DELTA_BIT: 7
C_SIG_BIT: 4
C_DELTA_BIT: 4

Initialize PREFETCH FILTER
FILTER_SET: 1024

*** ChampSim Multicore Out-of-Order Simulator ***

Warmup Instructions: 50000000
Simulation Instructions: 50000000
Number of CPUs: 1
LLC sets: 2048
LLC ways: 16
Off-chip DRAM Size: 4096 MB Channels: 1 Width: 64-bit Data Rate: 3200 MT/s

CPU 0 runs /home/tongjie/ChampSim/ipc1_public/server_016.champsimtrace.xz
CPU 0 L1D next line prefetcher
Heartbeat CPU 0 instructions: 10000000 cycles: 3501281 heartbeat IPC: 2.8561 cumulative IPC: 2.8561 (Simulation time: 0 hr 0 min 24 sec) 
Heartbeat CPU 0 instructions: 20000000 cycles: 7003153 heartbeat IPC: 2.85562 cumulative IPC: 2.85586 (Simulation time: 0 hr 0 min 48 sec) 
Heartbeat CPU 0 instructions: 30000001 cycles: 10500739 heartbeat IPC: 2.85912 cumulative IPC: 2.85694 (Simulation time: 0 hr 1 min 12 sec) 
Heartbeat CPU 0 instructions: 40000000 cycles: 13799722 heartbeat IPC: 3.03124 cumulative IPC: 2.89861 (Simulation time: 0 hr 1 min 25 sec) 
Heartbeat CPU 0 instructions: 50000002 cycles: 17035187 heartbeat IPC: 3.09075 cumulative IPC: 2.9351 (Simulation time: 0 hr 1 min 34 sec) 

Warmup complete CPU 0 instructions: 50000002 cycles: 17035187 (Simulation time: 0 hr 1 min 34 sec) 

Heartbeat CPU 0 instructions: 60000003 cycles: 25399402 heartbeat IPC: 1.19557 cumulative IPC: 1.19557 (Simulation time: 0 hr 1 min 45 sec) 
Heartbeat CPU 0 instructions: 70000001 cycles: 35709049 heartbeat IPC: 0.969965 cumulative IPC: 1.07102 (Simulation time: 0 hr 2 min 6 sec) 
Heartbeat CPU 0 instructions: 80000000 cycles: 46281995 heartbeat IPC: 0.94581 cumulative IPC: 1.02575 (Simulation time: 0 hr 2 min 26 sec) 
Heartbeat CPU 0 instructions: 90000000 cycles: 56395577 heartbeat IPC: 0.988769 cumulative IPC: 1.01625 (Simulation time: 0 hr 2 min 46 sec) 
Heartbeat CPU 0 instructions: 100000000 cycles: 66820153 heartbeat IPC: 0.959272 cumulative IPC: 1.00432 (Simulation time: 0 hr 3 min 7 sec) 
Finished CPU 0 instructions: 50000001 cycles: 49784967 cumulative IPC: 1.00432 (Simulation time: 0 hr 3 min 7 sec) 

ChampSim completed all CPUs

Region of Interest Statistics

CPU 0 cumulative IPC: 1.00432 instructions: 50000001 cycles: 49784967
L1D TOTAL     ACCESS:   20097829  HIT:   18828310  MISS:    1269519
L1D LOAD      ACCESS:    7551534  HIT:    6988895  MISS:     562639
L1D RFO       ACCESS:    5258112  HIT:    5036261  MISS:     221851
L1D PREFETCH  ACCESS:    7288183  HIT:    6803154  MISS:     485029
L1D WRITEBACK ACCESS:          0  HIT:          0  MISS:          0
L1D PREFETCH  REQUESTED:   15453739  ISSUED:   15246309  USEFUL:     238571  USELESS:     638953
L1D AVERAGE MISS LATENCY: 22.5068 cycles
L1I TOTAL     ACCESS:    9787463  HIT:    7711581  MISS:    2075882
L1I LOAD      ACCESS:    9787463  HIT:    7711581  MISS:    2075882
L1I RFO       ACCESS:          0  HIT:          0  MISS:          0
L1I PREFETCH  ACCESS:          0  HIT:          0  MISS:          0
L1I WRITEBACK ACCESS:          0  HIT:          0  MISS:          0
L1I PREFETCH  REQUESTED:          0  ISSUED:          0  USEFUL:          0  USELESS:          0
L1I AVERAGE MISS LATENCY: 18.125 cycles
L2C TOTAL     ACCESS:    5558606  HIT:    5049751  MISS:     508855
L2C LOAD      ACCESS:    2575098  HIT:    2223848  MISS:     351250
L2C RFO       ACCESS:     220243  HIT:     160334  MISS:      59909
L2C PREFETCH  ACCESS:    2334946  HIT:    2238145  MISS:      96801
L2C WRITEBACK ACCESS:     428319  HIT:     427424  MISS:        895
L2C PREFETCH  REQUESTED:    6155849  ISSUED:    6057173  USEFUL:      14939  USELESS:     161194
L2C AVERAGE MISS LATENCY: 39.0494 cycles
LLC TOTAL     ACCESS:    1686807  HIT:    1650570  MISS:      36237
LLC LOAD      ACCESS:     350790  HIT:     345292  MISS:       5498
LLC RFO       ACCESS:      59898  HIT:      46362  MISS:      13536
LLC PREFETCH  ACCESS:    1180051  HIT:    1163015  MISS:      17036
LLC WRITEBACK ACCESS:      96068  HIT:      95901  MISS:        167
LLC PREFETCH  REQUESTED:          0  ISSUED:          0  USEFUL:       6120  USELESS:      25380
LLC AVERAGE MISS LATENCY: 173.259 cycles
Major fault: 0 Minor fault: 2365
CPU 0 L1D next line prefetcher final stats

DRAM Statistics
 CHANNEL 0
 RQ ROW_BUFFER_HIT:      11703  ROW_BUFFER_MISS:      24366
 DBUS_CONGESTED:      22663
 WQ ROW_BUFFER_HIT:       1556  ROW_BUFFER_MISS:      13903  FULL:          0

 AVG_CONGESTED_CYCLE: 6

CPU 0 Branch Prediction Accuracy: 99.7225% MPKI: 0.50376 Average ROB Occupancy at Mispredict: 64.087

Branch types
NOT_BRANCH: 40923882 81.8478%
BRANCH_DIRECT_JUMP: 487045 0.97409%
BRANCH_INDIRECT: 169158 0.338316%
BRANCH_CONDITIONAL: 6640823 13.2816%
BRANCH_DIRECT_CALL: 755586 1.51117%
BRANCH_INDIRECT_CALL: 133962 0.267924%
BRANCH_RETURN: 889566 1.77913%
BRANCH_OTHER: 0 0%

