Initialize SIGNATURE TABLE
ST_SET: 1
ST_WAY: 256
ST_TAG_BIT: 16
ST_TAG_MASK: ffff

Initialize PATTERN TABLE
PT_SET: 512
PT_WAY: 4
SIG_DELTA_BIT: 7
C_SIG_BIT: 4
C_DELTA_BIT: 4

Initialize PREFETCH FILTER
FILTER_SET: 1024

*** ChampSim Multicore Out-of-Order Simulator ***

Warmup Instructions: 50000000
Simulation Instructions: 50000000
Number of CPUs: 1
LLC sets: 2048
LLC ways: 16
Off-chip DRAM Size: 4096 MB Channels: 1 Width: 64-bit Data Rate: 3200 MT/s

CPU 0 runs /home/tongjie/ChampSim/ipc1_public/server_017.champsimtrace.xz
CPU 0 L1D next line prefetcher
Heartbeat CPU 0 instructions: 10000001 cycles: 3627500 heartbeat IPC: 2.75672 cumulative IPC: 2.75672 (Simulation time: 0 hr 0 min 25 sec) 
Heartbeat CPU 0 instructions: 20000000 cycles: 7252948 heartbeat IPC: 2.75828 cumulative IPC: 2.7575 (Simulation time: 0 hr 0 min 56 sec) 
Heartbeat CPU 0 instructions: 30000002 cycles: 10885213 heartbeat IPC: 2.7531 cumulative IPC: 2.75603 (Simulation time: 0 hr 1 min 22 sec) 
Heartbeat CPU 0 instructions: 40000000 cycles: 14512800 heartbeat IPC: 2.75665 cumulative IPC: 2.75619 (Simulation time: 0 hr 1 min 47 sec) 
Heartbeat CPU 0 instructions: 50000001 cycles: 18151070 heartbeat IPC: 2.74856 cumulative IPC: 2.75466 (Simulation time: 0 hr 2 min 11 sec) 

Warmup complete CPU 0 instructions: 50000001 cycles: 18151070 (Simulation time: 0 hr 2 min 11 sec) 

Heartbeat CPU 0 instructions: 60000002 cycles: 37738603 heartbeat IPC: 0.510529 cumulative IPC: 0.510529 (Simulation time: 0 hr 2 min 41 sec) 
Heartbeat CPU 0 instructions: 70000000 cycles: 57509505 heartbeat IPC: 0.505794 cumulative IPC: 0.50815 (Simulation time: 0 hr 3 min 12 sec) 
Heartbeat CPU 0 instructions: 80000000 cycles: 77151408 heartbeat IPC: 0.509116 cumulative IPC: 0.508472 (Simulation time: 0 hr 3 min 43 sec) 
Heartbeat CPU 0 instructions: 90000002 cycles: 101913339 heartbeat IPC: 0.403846 cumulative IPC: 0.477542 (Simulation time: 0 hr 4 min 15 sec) 
Heartbeat CPU 0 instructions: 100000003 cycles: 123750404 heartbeat IPC: 0.457937 cumulative IPC: 0.473488 (Simulation time: 0 hr 4 min 48 sec) 
Finished CPU 0 instructions: 50000002 cycles: 105599334 cumulative IPC: 0.473488 (Simulation time: 0 hr 4 min 48 sec) 

ChampSim completed all CPUs

Region of Interest Statistics

CPU 0 cumulative IPC: 0.473488 instructions: 50000002 cycles: 105599334
L1D TOTAL     ACCESS:   19575044  HIT:   17409343  MISS:    2165701
L1D LOAD      ACCESS:    7593356  HIT:    6844894  MISS:     748462
L1D RFO       ACCESS:    5560131  HIT:    4700929  MISS:     859202
L1D PREFETCH  ACCESS:    6421557  HIT:    5863520  MISS:     558037
L1D WRITEBACK ACCESS:          0  HIT:          0  MISS:          0
L1D PREFETCH  REQUESTED:   17069089  ISSUED:   16696301  USEFUL:     604369  USELESS:     706262
L1D AVERAGE MISS LATENCY: 170.731 cycles
L1I TOTAL     ACCESS:    9788967  HIT:    7623436  MISS:    2165531
L1I LOAD      ACCESS:    9788967  HIT:    7623436  MISS:    2165531
L1I RFO       ACCESS:          0  HIT:          0  MISS:          0
L1I PREFETCH  ACCESS:          0  HIT:          0  MISS:          0
L1I WRITEBACK ACCESS:          0  HIT:          0  MISS:          0
L1I PREFETCH  REQUESTED:          0  ISSUED:          0  USEFUL:          0  USELESS:          0
L1I AVERAGE MISS LATENCY: 17.6937 cycles
L2C TOTAL     ACCESS:    7408188  HIT:    5566072  MISS:    1842116
L2C LOAD      ACCESS:    2705298  HIT:    2266504  MISS:     438794
L2C RFO       ACCESS:     858774  HIT:      17514  MISS:     841260
L2C PREFETCH  ACCESS:    2721244  HIT:    2160907  MISS:     560337
L2C WRITEBACK ACCESS:    1122872  HIT:    1121147  MISS:       1725
L2C PREFETCH  REQUESTED:    9790204  ISSUED:    9734949  USEFUL:      44735  USELESS:    1048377
L2C AVERAGE MISS LATENCY: 203.514 cycles
LLC TOTAL     ACCESS:    4139866  HIT:    2565405  MISS:    1574461
LLC LOAD      ACCESS:     438453  HIT:     265084  MISS:     173369
LLC RFO       ACCESS:     841257  HIT:     122448  MISS:     718809
LLC PREFETCH  ACCESS:    1799095  HIT:    1119402  MISS:     679693
LLC WRITEBACK ACCESS:    1061061  HIT:    1058471  MISS:       2590
LLC PREFETCH  REQUESTED:          0  ISSUED:          0  USEFUL:      99120  USELESS:    1148602
LLC AVERAGE MISS LATENCY: 253.135 cycles
Major fault: 0 Minor fault: 24694
CPU 0 L1D next line prefetcher final stats

DRAM Statistics
 CHANNEL 0
 RQ ROW_BUFFER_HIT:     377514  ROW_BUFFER_MISS:    1194243
 DBUS_CONGESTED:    1487367
 WQ ROW_BUFFER_HIT:     255650  ROW_BUFFER_MISS:     620379  FULL:          0

 AVG_CONGESTED_CYCLE: 6

CPU 0 Branch Prediction Accuracy: 99.2833% MPKI: 1.20568 Average ROB Occupancy at Mispredict: 167.485

Branch types
NOT_BRANCH: 41588346 83.1767%
BRANCH_DIRECT_JUMP: 464501 0.929002%
BRANCH_INDIRECT: 45704 0.091408%
BRANCH_CONDITIONAL: 6147408 12.2948%
BRANCH_DIRECT_CALL: 675450 1.3509%
BRANCH_INDIRECT_CALL: 201532 0.403064%
BRANCH_RETURN: 876985 1.75397%
BRANCH_OTHER: 0 0%

