Initialize SIGNATURE TABLE
ST_SET: 1
ST_WAY: 256
ST_TAG_BIT: 16
ST_TAG_MASK: ffff

Initialize PATTERN TABLE
PT_SET: 512
PT_WAY: 4
SIG_DELTA_BIT: 7
C_SIG_BIT: 4
C_DELTA_BIT: 4

Initialize PREFETCH FILTER
FILTER_SET: 1024

*** ChampSim Multicore Out-of-Order Simulator ***

Warmup Instructions: 50000000
Simulation Instructions: 50000000
Number of CPUs: 1
LLC sets: 2048
LLC ways: 16
Off-chip DRAM Size: 4096 MB Channels: 1 Width: 64-bit Data Rate: 3200 MT/s

CPU 0 runs /home/tongjie/ChampSim/ipc1_public/server_031.champsimtrace.xz
CPU 0 L1D next line prefetcher
Heartbeat CPU 0 instructions: 10000003 cycles: 3529879 heartbeat IPC: 2.83296 cumulative IPC: 2.83296 (Simulation time: 0 hr 0 min 24 sec) 
Heartbeat CPU 0 instructions: 20000002 cycles: 7059467 heartbeat IPC: 2.83319 cumulative IPC: 2.83308 (Simulation time: 0 hr 0 min 50 sec) 
Heartbeat CPU 0 instructions: 30000002 cycles: 10588484 heartbeat IPC: 2.83365 cumulative IPC: 2.83327 (Simulation time: 0 hr 1 min 17 sec) 
Heartbeat CPU 0 instructions: 40000003 cycles: 14113627 heartbeat IPC: 2.83676 cumulative IPC: 2.83414 (Simulation time: 0 hr 1 min 43 sec) 
Heartbeat CPU 0 instructions: 50000000 cycles: 17640779 heartbeat IPC: 2.83515 cumulative IPC: 2.83434 (Simulation time: 0 hr 2 min 9 sec) 

Warmup complete CPU 0 instructions: 50000004 cycles: 17640780 (Simulation time: 0 hr 2 min 9 sec) 

Heartbeat CPU 0 instructions: 60000001 cycles: 29163543 heartbeat IPC: 0.867847 cumulative IPC: 0.867847 (Simulation time: 0 hr 2 min 29 sec) 
Heartbeat CPU 0 instructions: 70000002 cycles: 40794490 heartbeat IPC: 0.859775 cumulative IPC: 0.863792 (Simulation time: 0 hr 2 min 52 sec) 
*** Reached end of trace for Core: 0 Repeating trace: /home/tongjie/ChampSim/ipc1_public/server_031.champsimtrace.xz
Heartbeat CPU 0 instructions: 80000000 cycles: 52197715 heartbeat IPC: 0.876945 cumulative IPC: 0.868132 (Simulation time: 0 hr 3 min 16 sec) 
Heartbeat CPU 0 instructions: 90000001 cycles: 63666318 heartbeat IPC: 0.871946 cumulative IPC: 0.869083 (Simulation time: 0 hr 3 min 37 sec) 
Heartbeat CPU 0 instructions: 100000000 cycles: 75107227 heartbeat IPC: 0.874056 cumulative IPC: 0.870073 (Simulation time: 0 hr 3 min 58 sec) 
Finished CPU 0 instructions: 50000000 cycles: 57466452 cumulative IPC: 0.870073 (Simulation time: 0 hr 3 min 58 sec) 

ChampSim completed all CPUs

Region of Interest Statistics

CPU 0 cumulative IPC: 0.870073 instructions: 50000000 cycles: 57466452
L1D TOTAL     ACCESS:   22387792  HIT:   20480103  MISS:    1907689
L1D LOAD      ACCESS:    8127224  HIT:    7271938  MISS:     855286
L1D RFO       ACCESS:    6432871  HIT:    6140313  MISS:     292558
L1D PREFETCH  ACCESS:    7827697  HIT:    7067852  MISS:     759845
L1D WRITEBACK ACCESS:          0  HIT:          0  MISS:          0
L1D PREFETCH  REQUESTED:   17457656  ISSUED:   17224270  USEFUL:     402575  USELESS:    1140095
L1D AVERAGE MISS LATENCY: 21.7906 cycles
L1I TOTAL     ACCESS:    9476286  HIT:    6479511  MISS:    2996775
L1I LOAD      ACCESS:    9476286  HIT:    6479511  MISS:    2996775
L1I RFO       ACCESS:          0  HIT:          0  MISS:          0
L1I PREFETCH  ACCESS:          0  HIT:          0  MISS:          0
L1I WRITEBACK ACCESS:          0  HIT:          0  MISS:          0
L1I PREFETCH  REQUESTED:          0  ISSUED:          0  USEFUL:          0  USELESS:          0
L1I AVERAGE MISS LATENCY: 17.4634 cycles
L2C TOTAL     ACCESS:    8198139  HIT:    7604305  MISS:     593834
L2C LOAD      ACCESS:    3777376  HIT:    3348987  MISS:     428389
L2C RFO       ACCESS:     289745  HIT:     251288  MISS:      38457
L2C PREFETCH  ACCESS:    3514064  HIT:    3387660  MISS:     126404
L2C WRITEBACK ACCESS:     616954  HIT:     616370  MISS:        584
L2C PREFETCH  REQUESTED:   10418341  ISSUED:   10246907  USEFUL:      13821  USELESS:     239879
L2C AVERAGE MISS LATENCY: 42.6064 cycles
LLC TOTAL     ACCESS:    2614641  HIT:    2530461  MISS:      84180
LLC LOAD      ACCESS:     426751  HIT:     406237  MISS:      20514
LLC RFO       ACCESS:      38457  HIT:      34214  MISS:       4243
LLC PREFETCH  ACCESS:    2079219  HIT:    2020402  MISS:      58817
LLC WRITEBACK ACCESS:      70214  HIT:      69608  MISS:        606
LLC PREFETCH  REQUESTED:          0  ISSUED:          0  USEFUL:       7401  USELESS:      83802
LLC AVERAGE MISS LATENCY: 158.055 cycles
Major fault: 0 Minor fault: 6041
CPU 0 L1D next line prefetcher final stats

DRAM Statistics
 CHANNEL 0
 RQ ROW_BUFFER_HIT:      23808  ROW_BUFFER_MISS:      59761
 DBUS_CONGESTED:      33974
 WQ ROW_BUFFER_HIT:        847  ROW_BUFFER_MISS:       5300  FULL:          0

 AVG_CONGESTED_CYCLE: 5

CPU 0 Branch Prediction Accuracy: 99.6894% MPKI: 0.58048 Average ROB Occupancy at Mispredict: 98.2565

Branch types
NOT_BRANCH: 40655580 81.3112%
BRANCH_DIRECT_JUMP: 546483 1.09297%
BRANCH_INDIRECT: 172433 0.344866%
BRANCH_CONDITIONAL: 6207572 12.4151%
BRANCH_DIRECT_CALL: 1018498 2.037%
BRANCH_INDIRECT_CALL: 190373 0.380746%
BRANCH_RETURN: 1208855 2.41771%
BRANCH_OTHER: 0 0%

