Initialize SIGNATURE TABLE
ST_SET: 1
ST_WAY: 256
ST_TAG_BIT: 16
ST_TAG_MASK: ffff

Initialize PATTERN TABLE
PT_SET: 512
PT_WAY: 4
SIG_DELTA_BIT: 7
C_SIG_BIT: 4
C_DELTA_BIT: 4

Initialize PREFETCH FILTER
FILTER_SET: 1024

*** ChampSim Multicore Out-of-Order Simulator ***

Warmup Instructions: 50000000
Simulation Instructions: 50000000
Number of CPUs: 1
LLC sets: 2048
LLC ways: 16
Off-chip DRAM Size: 4096 MB Channels: 1 Width: 64-bit Data Rate: 3200 MT/s

CPU 0 runs /home/tongjie/ChampSim/ipc1_public/server_015.champsimtrace.xz
CPU 0 L1D next line prefetcher
Heartbeat CPU 0 instructions: 10000002 cycles: 3519416 heartbeat IPC: 2.84138 cumulative IPC: 2.84138 (Simulation time: 0 hr 0 min 24 sec) 
Heartbeat CPU 0 instructions: 20000001 cycles: 7107038 heartbeat IPC: 2.78736 cumulative IPC: 2.81411 (Simulation time: 0 hr 0 min 49 sec) 
Heartbeat CPU 0 instructions: 30000001 cycles: 10646019 heartbeat IPC: 2.82567 cumulative IPC: 2.81795 (Simulation time: 0 hr 1 min 13 sec) 
Heartbeat CPU 0 instructions: 40000002 cycles: 14194057 heartbeat IPC: 2.81846 cumulative IPC: 2.81808 (Simulation time: 0 hr 1 min 38 sec) 
Heartbeat CPU 0 instructions: 50000002 cycles: 17742315 heartbeat IPC: 2.81828 cumulative IPC: 2.81812 (Simulation time: 0 hr 2 min 2 sec) 

Warmup complete CPU 0 instructions: 50000002 cycles: 17742315 (Simulation time: 0 hr 2 min 2 sec) 

Heartbeat CPU 0 instructions: 60000002 cycles: 25950436 heartbeat IPC: 1.21831 cumulative IPC: 1.21831 (Simulation time: 0 hr 2 min 22 sec) 
Heartbeat CPU 0 instructions: 70000003 cycles: 34154150 heartbeat IPC: 1.21896 cumulative IPC: 1.21863 (Simulation time: 0 hr 2 min 41 sec) 
Heartbeat CPU 0 instructions: 80000000 cycles: 42356751 heartbeat IPC: 1.21913 cumulative IPC: 1.2188 (Simulation time: 0 hr 3 min 1 sec) 
Heartbeat CPU 0 instructions: 90000000 cycles: 50563167 heartbeat IPC: 1.21856 cumulative IPC: 1.21874 (Simulation time: 0 hr 3 min 19 sec) 
Heartbeat CPU 0 instructions: 100000000 cycles: 58766862 heartbeat IPC: 1.21896 cumulative IPC: 1.21878 (Simulation time: 0 hr 3 min 36 sec) 
Finished CPU 0 instructions: 50000002 cycles: 41024548 cumulative IPC: 1.21878 (Simulation time: 0 hr 3 min 36 sec) 

ChampSim completed all CPUs

Region of Interest Statistics

CPU 0 cumulative IPC: 1.21878 instructions: 50000002 cycles: 41024548
L1D TOTAL     ACCESS:   23527929  HIT:   23510050  MISS:      17879
L1D LOAD      ACCESS:    7521260  HIT:    7520731  MISS:        529
L1D RFO       ACCESS:    8583284  HIT:    8583185  MISS:         99
L1D PREFETCH  ACCESS:    7423385  HIT:    7406134  MISS:      17251
L1D WRITEBACK ACCESS:          0  HIT:          0  MISS:          0
L1D PREFETCH  REQUESTED:   16608098  ISSUED:   16370185  USEFUL:      13792  USELESS:      25127
L1D AVERAGE MISS LATENCY: 15.7591 cycles
L1I TOTAL     ACCESS:    9669982  HIT:    8049711  MISS:    1620271
L1I LOAD      ACCESS:    9669982  HIT:    8049711  MISS:    1620271
L1I RFO       ACCESS:          0  HIT:          0  MISS:          0
L1I PREFETCH  ACCESS:          0  HIT:          0  MISS:          0
L1I WRITEBACK ACCESS:          0  HIT:          0  MISS:          0
L1I PREFETCH  REQUESTED:          0  ISSUED:          0  USEFUL:          0  USELESS:          0
L1I AVERAGE MISS LATENCY: 14.0369 cycles
L2C TOTAL     ACCESS:    2741975  HIT:    2741758  MISS:        217
L2C LOAD      ACCESS:    1620775  HIT:    1620689  MISS:         86
L2C RFO       ACCESS:         95  HIT:         93  MISS:          2
L2C PREFETCH  ACCESS:    1120754  HIT:    1120625  MISS:        129
L2C WRITEBACK ACCESS:        351  HIT:        351  MISS:          0
L2C PREFETCH  REQUESTED:    3526316  ISSUED:    3525986  USEFUL:        664  USELESS:      18947
L2C AVERAGE MISS LATENCY: 99.7235 cycles
LLC TOTAL     ACCESS:     345378  HIT:     344912  MISS:        466
LLC LOAD      ACCESS:         86  HIT:         72  MISS:         14
LLC RFO       ACCESS:          2  HIT:          0  MISS:          2
LLC PREFETCH  ACCESS:     345225  HIT:     344777  MISS:        448
LLC WRITEBACK ACCESS:         65  HIT:         63  MISS:          2
LLC PREFETCH  REQUESTED:          0  ISSUED:          0  USEFUL:       7544  USELESS:      13571
LLC AVERAGE MISS LATENCY: 199.985 cycles
Major fault: 0 Minor fault: 1888
CPU 0 L1D next line prefetcher final stats

DRAM Statistics
 CHANNEL 0
 RQ ROW_BUFFER_HIT:         78  ROW_BUFFER_MISS:        386
 DBUS_CONGESTED:        243
 WQ ROW_BUFFER_HIT:         70  ROW_BUFFER_MISS:        260  FULL:          0

 AVG_CONGESTED_CYCLE: 6

CPU 0 Branch Prediction Accuracy: 99.9085% MPKI: 0.15428 Average ROB Occupancy at Mispredict: 62.4471

Branch types
NOT_BRANCH: 41572938 83.1459%
BRANCH_DIRECT_JUMP: 436253 0.872506%
BRANCH_INDIRECT: 0 0%
BRANCH_CONDITIONAL: 5395869 10.7917%
BRANCH_DIRECT_CALL: 1173384 2.34677%
BRANCH_INDIRECT_CALL: 123910 0.24782%
BRANCH_RETURN: 1297306 2.59461%
BRANCH_OTHER: 0 0%

