Initialize SIGNATURE TABLE
ST_SET: 1
ST_WAY: 256
ST_TAG_BIT: 16
ST_TAG_MASK: ffff

Initialize PATTERN TABLE
PT_SET: 512
PT_WAY: 4
SIG_DELTA_BIT: 7
C_SIG_BIT: 4
C_DELTA_BIT: 4

Initialize PREFETCH FILTER
FILTER_SET: 1024

*** ChampSim Multicore Out-of-Order Simulator ***

Warmup Instructions: 50000000
Simulation Instructions: 50000000
Number of CPUs: 1
LLC sets: 2048
LLC ways: 16
Off-chip DRAM Size: 4096 MB Channels: 1 Width: 64-bit Data Rate: 3200 MT/s

CPU 0 runs /home/tongjie/ChampSim/ipc1_public/server_033.champsimtrace.xz
CPU 0 L1D next line prefetcher
Heartbeat CPU 0 instructions: 10000001 cycles: 3349618 heartbeat IPC: 2.98542 cumulative IPC: 2.98542 (Simulation time: 0 hr 0 min 26 sec) 
Heartbeat CPU 0 instructions: 20000003 cycles: 6697733 heartbeat IPC: 2.98676 cumulative IPC: 2.98609 (Simulation time: 0 hr 0 min 51 sec) 
Heartbeat CPU 0 instructions: 30000001 cycles: 10035386 heartbeat IPC: 2.99612 cumulative IPC: 2.98942 (Simulation time: 0 hr 1 min 18 sec) 
Heartbeat CPU 0 instructions: 40000000 cycles: 13382469 heartbeat IPC: 2.98768 cumulative IPC: 2.98899 (Simulation time: 0 hr 1 min 44 sec) 
Heartbeat CPU 0 instructions: 50000000 cycles: 16728562 heartbeat IPC: 2.98856 cumulative IPC: 2.9889 (Simulation time: 0 hr 2 min 9 sec) 

Warmup complete CPU 0 instructions: 50000004 cycles: 16728563 (Simulation time: 0 hr 2 min 9 sec) 

Heartbeat CPU 0 instructions: 60000000 cycles: 26679178 heartbeat IPC: 1.00496 cumulative IPC: 1.00496 (Simulation time: 0 hr 2 min 32 sec) 
Heartbeat CPU 0 instructions: 70000000 cycles: 36562313 heartbeat IPC: 1.01182 cumulative IPC: 1.00838 (Simulation time: 0 hr 2 min 54 sec) 
Heartbeat CPU 0 instructions: 80000000 cycles: 47111749 heartbeat IPC: 0.947918 cumulative IPC: 0.987388 (Simulation time: 0 hr 3 min 18 sec) 
Heartbeat CPU 0 instructions: 90000003 cycles: 57118116 heartbeat IPC: 0.999364 cumulative IPC: 0.990355 (Simulation time: 0 hr 3 min 40 sec) 
Heartbeat CPU 0 instructions: 100000000 cycles: 67096183 heartbeat IPC: 1.0022 cumulative IPC: 0.992701 (Simulation time: 0 hr 4 min 2 sec) 
Finished CPU 0 instructions: 50000000 cycles: 50367627 cumulative IPC: 0.992701 (Simulation time: 0 hr 4 min 2 sec) 

ChampSim completed all CPUs

Region of Interest Statistics

CPU 0 cumulative IPC: 0.992701 instructions: 50000000 cycles: 50367627
L1D TOTAL     ACCESS:   20922765  HIT:   19439051  MISS:    1483714
L1D LOAD      ACCESS:    7436645  HIT:    6762624  MISS:     674021
L1D RFO       ACCESS:    6233283  HIT:    6081723  MISS:     151560
L1D PREFETCH  ACCESS:    7252837  HIT:    6594704  MISS:     658133
L1D WRITEBACK ACCESS:          0  HIT:          0  MISS:          0
L1D PREFETCH  REQUESTED:   16114111  ISSUED:   15809692  USEFUL:     295593  USELESS:    1017894
L1D AVERAGE MISS LATENCY: 23.3523 cycles
L1I TOTAL     ACCESS:    9616046  HIT:    6316677  MISS:    3299369
L1I LOAD      ACCESS:    9616046  HIT:    6316677  MISS:    3299369
L1I RFO       ACCESS:          0  HIT:          0  MISS:          0
L1I PREFETCH  ACCESS:          0  HIT:          0  MISS:          0
L1I WRITEBACK ACCESS:          0  HIT:          0  MISS:          0
L1I PREFETCH  REQUESTED:          0  ISSUED:          0  USEFUL:          0  USELESS:          0
L1I AVERAGE MISS LATENCY: 14.6152 cycles
L2C TOTAL     ACCESS:    8448259  HIT:    8159004  MISS:     289255
L2C LOAD      ACCESS:    3966560  HIT:    3810976  MISS:     155584
L2C RFO       ACCESS:     151177  HIT:     131151  MISS:      20026
L2C PREFETCH  ACCESS:    3963723  HIT:    3851116  MISS:     112607
L2C WRITEBACK ACCESS:     366799  HIT:     365761  MISS:       1038
L2C PREFETCH  REQUESTED:   11214465  ISSUED:   11116803  USEFUL:      18709  USELESS:     206956
L2C AVERAGE MISS LATENCY: 48.3856 cycles
LLC TOTAL     ACCESS:    2075022  HIT:    2017028  MISS:      57994
LLC LOAD      ACCESS:     155429  HIT:     139949  MISS:      15480
LLC RFO       ACCESS:      20026  HIT:      17035  MISS:       2991
LLC PREFETCH  ACCESS:    1796617  HIT:    1757347  MISS:      39270
LLC WRITEBACK ACCESS:     102950  HIT:     102697  MISS:        253
LLC PREFETCH  REQUESTED:          0  ISSUED:          0  USEFUL:      17249  USELESS:      54040
LLC AVERAGE MISS LATENCY: 166.604 cycles
Major fault: 0 Minor fault: 2482
CPU 0 L1D next line prefetcher final stats

DRAM Statistics
 CHANNEL 0
 RQ ROW_BUFFER_HIT:       9278  ROW_BUFFER_MISS:      48458
 DBUS_CONGESTED:      24938
 WQ ROW_BUFFER_HIT:       3591  ROW_BUFFER_MISS:      16307  FULL:          0

 AVG_CONGESTED_CYCLE: 5

CPU 0 Branch Prediction Accuracy: 99.9029% MPKI: 0.19006 Average ROB Occupancy at Mispredict: 110.987

Branch types
NOT_BRANCH: 40217077 80.4342%
BRANCH_DIRECT_JUMP: 774599 1.5492%
BRANCH_INDIRECT: 108806 0.217612%
BRANCH_CONDITIONAL: 6379326 12.7587%
BRANCH_DIRECT_CALL: 1048808 2.09762%
BRANCH_INDIRECT_CALL: 211109 0.422218%
BRANCH_RETURN: 1259924 2.51985%
BRANCH_OTHER: 0 0%

