Initialize SIGNATURE TABLE
ST_SET: 1
ST_WAY: 256
ST_TAG_BIT: 16
ST_TAG_MASK: ffff

Initialize PATTERN TABLE
PT_SET: 512
PT_WAY: 4
SIG_DELTA_BIT: 7
C_SIG_BIT: 4
C_DELTA_BIT: 4

Initialize PREFETCH FILTER
FILTER_SET: 1024

*** ChampSim Multicore Out-of-Order Simulator ***

Warmup Instructions: 50000000
Simulation Instructions: 50000000
Number of CPUs: 1
LLC sets: 2048
LLC ways: 16
Off-chip DRAM Size: 4096 MB Channels: 1 Width: 64-bit Data Rate: 3200 MT/s

CPU 0 runs /home/tongjie/ChampSim/ipc1_public/server_026.champsimtrace.xz
CPU 0 L1D next line prefetcher
Heartbeat CPU 0 instructions: 10000000 cycles: 3534009 heartbeat IPC: 2.82965 cumulative IPC: 2.82965 (Simulation time: 0 hr 0 min 24 sec) 
Heartbeat CPU 0 instructions: 20000002 cycles: 7074134 heartbeat IPC: 2.82476 cumulative IPC: 2.8272 (Simulation time: 0 hr 0 min 48 sec) 
Heartbeat CPU 0 instructions: 30000000 cycles: 10603223 heartbeat IPC: 2.83359 cumulative IPC: 2.82933 (Simulation time: 0 hr 1 min 11 sec) 
Heartbeat CPU 0 instructions: 40000003 cycles: 14142055 heartbeat IPC: 2.82579 cumulative IPC: 2.82844 (Simulation time: 0 hr 1 min 35 sec) 
Heartbeat CPU 0 instructions: 50000000 cycles: 17673817 heartbeat IPC: 2.83145 cumulative IPC: 2.82904 (Simulation time: 0 hr 1 min 59 sec) 

Warmup complete CPU 0 instructions: 50000004 cycles: 17673818 (Simulation time: 0 hr 1 min 59 sec) 

*** Reached end of trace for Core: 0 Repeating trace: /home/tongjie/ChampSim/ipc1_public/server_026.champsimtrace.xz
Heartbeat CPU 0 instructions: 60000000 cycles: 28579211 heartbeat IPC: 0.916977 cumulative IPC: 0.916977 (Simulation time: 0 hr 2 min 20 sec) 
Heartbeat CPU 0 instructions: 70000001 cycles: 39326649 heartbeat IPC: 0.930454 cumulative IPC: 0.923667 (Simulation time: 0 hr 2 min 40 sec) 
Heartbeat CPU 0 instructions: 80000003 cycles: 50230486 heartbeat IPC: 0.917109 cumulative IPC: 0.92147 (Simulation time: 0 hr 3 min 1 sec) 
Heartbeat CPU 0 instructions: 90000002 cycles: 61005185 heartbeat IPC: 0.9281 cumulative IPC: 0.923119 (Simulation time: 0 hr 3 min 21 sec) 
Heartbeat CPU 0 instructions: 100000000 cycles: 71877970 heartbeat IPC: 0.919727 cumulative IPC: 0.922439 (Simulation time: 0 hr 3 min 41 sec) 
Finished CPU 0 instructions: 50000000 cycles: 54204153 cumulative IPC: 0.922439 (Simulation time: 0 hr 3 min 41 sec) 

ChampSim completed all CPUs

Region of Interest Statistics

CPU 0 cumulative IPC: 0.922439 instructions: 50000000 cycles: 54204153
L1D TOTAL     ACCESS:   22549227  HIT:   20902081  MISS:    1647146
L1D LOAD      ACCESS:    8264983  HIT:    7549218  MISS:     715765
L1D RFO       ACCESS:    6332569  HIT:    6045129  MISS:     287440
L1D PREFETCH  ACCESS:    7951675  HIT:    7307734  MISS:     643941
L1D WRITEBACK ACCESS:          0  HIT:          0  MISS:          0
L1D PREFETCH  REQUESTED:   17811883  ISSUED:   17490967  USEFUL:     345900  USELESS:     955671
L1D AVERAGE MISS LATENCY: 23.0435 cycles
L1I TOTAL     ACCESS:    9346120  HIT:    6606023  MISS:    2740097
L1I LOAD      ACCESS:    9346120  HIT:    6606023  MISS:    2740097
L1I RFO       ACCESS:          0  HIT:          0  MISS:          0
L1I PREFETCH  ACCESS:          0  HIT:          0  MISS:          0
L1I WRITEBACK ACCESS:          0  HIT:          0  MISS:          0
L1I PREFETCH  REQUESTED:          0  ISSUED:          0  USEFUL:          0  USELESS:          0
L1I AVERAGE MISS LATENCY: 18.5048 cycles
L2C TOTAL     ACCESS:    7351158  HIT:    6594727  MISS:     756431
L2C LOAD      ACCESS:    3390480  HIT:    2872441  MISS:     518039
L2C RFO       ACCESS:     284806  HIT:     192325  MISS:      92481
L2C PREFETCH  ACCESS:    3114713  HIT:    2971659  MISS:     143054
L2C WRITEBACK ACCESS:     561159  HIT:     558302  MISS:       2857
L2C PREFETCH  REQUESTED:    9522171  ISSUED:    9345816  USEFUL:      26963  USELESS:     254698
L2C AVERAGE MISS LATENCY: 36.3578 cycles
LLC TOTAL     ACCESS:    2454830  HIT:    2419769  MISS:      35061
LLC LOAD      ACCESS:     517691  HIT:     512909  MISS:       4782
LLC RFO       ACCESS:      92478  HIT:      77973  MISS:      14505
LLC PREFETCH  ACCESS:    1689825  HIT:    1674268  MISS:      15557
LLC WRITEBACK ACCESS:     154836  HIT:     154619  MISS:        217
LLC PREFETCH  REQUESTED:          0  ISSUED:          0  USEFUL:       5163  USELESS:      23426
LLC AVERAGE MISS LATENCY: 184.174 cycles
Major fault: 0 Minor fault: 2165
CPU 0 L1D next line prefetcher final stats

DRAM Statistics
 CHANNEL 0
 RQ ROW_BUFFER_HIT:      12781  ROW_BUFFER_MISS:      22058
 DBUS_CONGESTED:      23592
 WQ ROW_BUFFER_HIT:       1548  ROW_BUFFER_MISS:      13989  FULL:          0

 AVG_CONGESTED_CYCLE: 6

CPU 0 Branch Prediction Accuracy: 99.822% MPKI: 0.32584 Average ROB Occupancy at Mispredict: 77.1896

Branch types
NOT_BRANCH: 40848528 81.6971%
BRANCH_DIRECT_JUMP: 522045 1.04409%
BRANCH_INDIRECT: 204034 0.408068%
BRANCH_CONDITIONAL: 6212952 12.4259%
BRANCH_DIRECT_CALL: 932389 1.86478%
BRANCH_INDIRECT_CALL: 173764 0.347528%
BRANCH_RETURN: 1106149 2.2123%
BRANCH_OTHER: 0 0%

