Initialize SIGNATURE TABLE
ST_SET: 1
ST_WAY: 256
ST_TAG_BIT: 16
ST_TAG_MASK: ffff

Initialize PATTERN TABLE
PT_SET: 512
PT_WAY: 4
SIG_DELTA_BIT: 7
C_SIG_BIT: 4
C_DELTA_BIT: 4

Initialize PREFETCH FILTER
FILTER_SET: 1024

*** ChampSim Multicore Out-of-Order Simulator ***

Warmup Instructions: 50000000
Simulation Instructions: 50000000
Number of CPUs: 1
LLC sets: 2048
LLC ways: 16
Off-chip DRAM Size: 4096 MB Channels: 1 Width: 64-bit Data Rate: 3200 MT/s

CPU 0 runs /home/tongjie/ChampSim/ipc1_public/server_039.champsimtrace.xz
CPU 0 L1D next line prefetcher
Heartbeat CPU 0 instructions: 10000003 cycles: 3453210 heartbeat IPC: 2.89586 cumulative IPC: 2.89586 (Simulation time: 0 hr 0 min 25 sec) 
Heartbeat CPU 0 instructions: 20000002 cycles: 6899575 heartbeat IPC: 2.90161 cumulative IPC: 2.89873 (Simulation time: 0 hr 0 min 48 sec) 
Heartbeat CPU 0 instructions: 30000001 cycles: 10347642 heartbeat IPC: 2.90018 cumulative IPC: 2.89921 (Simulation time: 0 hr 1 min 12 sec) 
Heartbeat CPU 0 instructions: 40000002 cycles: 13791085 heartbeat IPC: 2.90407 cumulative IPC: 2.90042 (Simulation time: 0 hr 1 min 35 sec) 
Heartbeat CPU 0 instructions: 50000001 cycles: 17233919 heartbeat IPC: 2.90458 cumulative IPC: 2.90126 (Simulation time: 0 hr 1 min 59 sec) 

Warmup complete CPU 0 instructions: 50000001 cycles: 17233919 (Simulation time: 0 hr 1 min 59 sec) 

Heartbeat CPU 0 instructions: 60000000 cycles: 27912671 heartbeat IPC: 0.936439 cumulative IPC: 0.936439 (Simulation time: 0 hr 2 min 17 sec) 
Heartbeat CPU 0 instructions: 70000002 cycles: 38589306 heartbeat IPC: 0.936625 cumulative IPC: 0.936532 (Simulation time: 0 hr 2 min 35 sec) 
Heartbeat CPU 0 instructions: 80000001 cycles: 49269248 heartbeat IPC: 0.936335 cumulative IPC: 0.936466 (Simulation time: 0 hr 2 min 52 sec) 
Heartbeat CPU 0 instructions: 90000001 cycles: 59948731 heartbeat IPC: 0.936375 cumulative IPC: 0.936443 (Simulation time: 0 hr 3 min 9 sec) 
Heartbeat CPU 0 instructions: 100000002 cycles: 70628180 heartbeat IPC: 0.936378 cumulative IPC: 0.93643 (Simulation time: 0 hr 3 min 28 sec) 
Finished CPU 0 instructions: 50000001 cycles: 53394261 cumulative IPC: 0.93643 (Simulation time: 0 hr 3 min 28 sec) 

ChampSim completed all CPUs

Region of Interest Statistics

CPU 0 cumulative IPC: 0.93643 instructions: 50000001 cycles: 53394261
L1D TOTAL     ACCESS:   23661241  HIT:   23164293  MISS:     496948
L1D LOAD      ACCESS:    8299390  HIT:    8078731  MISS:     220659
L1D RFO       ACCESS:    7200317  HIT:    7130214  MISS:      70103
L1D PREFETCH  ACCESS:    8161534  HIT:    7955348  MISS:     206186
L1D WRITEBACK ACCESS:          0  HIT:          0  MISS:          0
L1D PREFETCH  REQUESTED:   17412367  ISSUED:   17143624  USEFUL:     104595  USELESS:     312624
L1D AVERAGE MISS LATENCY: 14.7563 cycles
L1I TOTAL     ACCESS:    9291293  HIT:    5203993  MISS:    4087300
L1I LOAD      ACCESS:    9291293  HIT:    5203993  MISS:    4087300
L1I RFO       ACCESS:          0  HIT:          0  MISS:          0
L1I PREFETCH  ACCESS:          0  HIT:          0  MISS:          0
L1I WRITEBACK ACCESS:          0  HIT:          0  MISS:          0
L1I PREFETCH  REQUESTED:          0  ISSUED:          0  USEFUL:          0  USELESS:          0
L1I AVERAGE MISS LATENCY: 14.0642 cycles
L2C TOTAL     ACCESS:    8040656  HIT:    8040607  MISS:         49
L2C LOAD      ACCESS:    4298722  HIT:    4298719  MISS:          3
L2C RFO       ACCESS:      66934  HIT:      66934  MISS:          0
L2C PREFETCH  ACCESS:    3494808  HIT:    3494762  MISS:         46
L2C WRITEBACK ACCESS:     180192  HIT:     180192  MISS:          0
L2C PREFETCH  REQUESTED:    9943758  ISSUED:    9941843  USEFUL:         69  USELESS:          3
L2C AVERAGE MISS LATENCY: 73.5918 cycles
LLC TOTAL     ACCESS:    1150726  HIT:    1150563  MISS:        163
LLC LOAD      ACCESS:          3  HIT:          1  MISS:          2
LLC RFO       ACCESS:          0  HIT:          0  MISS:          0
LLC PREFETCH  ACCESS:    1150723  HIT:    1150562  MISS:        161
LLC WRITEBACK ACCESS:          0  HIT:          0  MISS:          0
LLC PREFETCH  REQUESTED:          0  ISSUED:          0  USEFUL:        470  USELESS:          0
LLC AVERAGE MISS LATENCY: 174.27 cycles
Major fault: 0 Minor fault: 356
CPU 0 L1D next line prefetcher final stats

DRAM Statistics
 CHANNEL 0
 RQ ROW_BUFFER_HIT:         21  ROW_BUFFER_MISS:        142
 DBUS_CONGESTED:         29
 WQ ROW_BUFFER_HIT:          0  ROW_BUFFER_MISS:          0  FULL:          0

 AVG_CONGESTED_CYCLE: 6

CPU 0 Branch Prediction Accuracy: 99.9091% MPKI: 0.1547 Average ROB Occupancy at Mispredict: 7.82689

Branch types
NOT_BRANCH: 41494795 82.9896%
BRANCH_DIRECT_JUMP: 491305 0.98261%
BRANCH_INDIRECT: 0 0%
BRANCH_CONDITIONAL: 5595231 11.1905%
BRANCH_DIRECT_CALL: 1028406 2.05681%
BRANCH_INDIRECT_CALL: 180755 0.36151%
BRANCH_RETURN: 1209170 2.41834%
BRANCH_OTHER: 0 0%

