Initialize SIGNATURE TABLE
ST_SET: 1
ST_WAY: 256
ST_TAG_BIT: 16
ST_TAG_MASK: ffff

Initialize PATTERN TABLE
PT_SET: 512
PT_WAY: 4
SIG_DELTA_BIT: 7
C_SIG_BIT: 4
C_DELTA_BIT: 4

Initialize PREFETCH FILTER
FILTER_SET: 1024

*** ChampSim Multicore Out-of-Order Simulator ***

Warmup Instructions: 50000000
Simulation Instructions: 50000000
Number of CPUs: 1
LLC sets: 2048
LLC ways: 16
Off-chip DRAM Size: 4096 MB Channels: 1 Width: 64-bit Data Rate: 3200 MT/s

CPU 0 runs /home/tongjie/ChampSim/ipc1_public/server_028.champsimtrace.xz
CPU 0 L1D next line prefetcher
Heartbeat CPU 0 instructions: 10000001 cycles: 3505054 heartbeat IPC: 2.85302 cumulative IPC: 2.85302 (Simulation time: 0 hr 0 min 23 sec) 
Heartbeat CPU 0 instructions: 20000002 cycles: 7010979 heartbeat IPC: 2.85231 cumulative IPC: 2.85267 (Simulation time: 0 hr 0 min 47 sec) 
Heartbeat CPU 0 instructions: 30000001 cycles: 10514971 heartbeat IPC: 2.85389 cumulative IPC: 2.85308 (Simulation time: 0 hr 1 min 11 sec) 
Heartbeat CPU 0 instructions: 40000002 cycles: 14023850 heartbeat IPC: 2.84991 cumulative IPC: 2.85228 (Simulation time: 0 hr 1 min 35 sec) 
Heartbeat CPU 0 instructions: 50000001 cycles: 17528932 heartbeat IPC: 2.853 cumulative IPC: 2.85243 (Simulation time: 0 hr 1 min 59 sec) 

Warmup complete CPU 0 instructions: 50000001 cycles: 17528932 (Simulation time: 0 hr 1 min 59 sec) 

Heartbeat CPU 0 instructions: 60000002 cycles: 28845453 heartbeat IPC: 0.883664 cumulative IPC: 0.883664 (Simulation time: 0 hr 2 min 19 sec) 
Heartbeat CPU 0 instructions: 70000000 cycles: 40149615 heartbeat IPC: 0.88463 cumulative IPC: 0.884147 (Simulation time: 0 hr 2 min 40 sec) 
Heartbeat CPU 0 instructions: 80000000 cycles: 51473349 heartbeat IPC: 0.883101 cumulative IPC: 0.883798 (Simulation time: 0 hr 3 min 1 sec) 
*** Reached end of trace for Core: 0 Repeating trace: /home/tongjie/ChampSim/ipc1_public/server_028.champsimtrace.xz
Heartbeat CPU 0 instructions: 90000000 cycles: 62760325 heartbeat IPC: 0.885977 cumulative IPC: 0.884342 (Simulation time: 0 hr 3 min 22 sec) 
Heartbeat CPU 0 instructions: 100000002 cycles: 74028055 heartbeat IPC: 0.88749 cumulative IPC: 0.88497 (Simulation time: 0 hr 3 min 42 sec) 
Finished CPU 0 instructions: 50000001 cycles: 56499123 cumulative IPC: 0.884969 (Simulation time: 0 hr 3 min 42 sec) 

ChampSim completed all CPUs

Region of Interest Statistics

CPU 0 cumulative IPC: 0.884969 instructions: 50000001 cycles: 56499123
L1D TOTAL     ACCESS:   21684340  HIT:   19608262  MISS:    2076078
L1D LOAD      ACCESS:    7975952  HIT:    6943061  MISS:    1032891
L1D RFO       ACCESS:    6205030  HIT:    5920695  MISS:     284335
L1D PREFETCH  ACCESS:    7503358  HIT:    6744506  MISS:     758852
L1D WRITEBACK ACCESS:          0  HIT:          0  MISS:          0
L1D PREFETCH  REQUESTED:   17201385  ISSUED:   16972041  USEFUL:     411605  USELESS:    1138796
L1D AVERAGE MISS LATENCY: 20.8221 cycles
L1I TOTAL     ACCESS:    9556136  HIT:    6674448  MISS:    2881688
L1I LOAD      ACCESS:    9556136  HIT:    6674448  MISS:    2881688
L1I RFO       ACCESS:          0  HIT:          0  MISS:          0
L1I PREFETCH  ACCESS:          0  HIT:          0  MISS:          0
L1I WRITEBACK ACCESS:          0  HIT:          0  MISS:          0
L1I PREFETCH  REQUESTED:          0  ISSUED:          0  USEFUL:          0  USELESS:          0
L1I AVERAGE MISS LATENCY: 17.5859 cycles
L2C TOTAL     ACCESS:    8195781  HIT:    7525724  MISS:     670057
L2C LOAD      ACCESS:    3738453  HIT:    3277543  MISS:     460910
L2C RFO       ACCESS:     281133  HIT:     230286  MISS:      50847
L2C PREFETCH  ACCESS:    3570778  HIT:    3413555  MISS:     157223
L2C WRITEBACK ACCESS:     605417  HIT:     604340  MISS:       1077
L2C PREFETCH  REQUESTED:   11465668  ISSUED:   11106042  USEFUL:      22756  USELESS:     286430
L2C AVERAGE MISS LATENCY: 39.1492 cycles
LLC TOTAL     ACCESS:    2707394  HIT:    2634689  MISS:      72705
LLC LOAD      ACCESS:     459533  HIT:     442086  MISS:      17447
LLC RFO       ACCESS:      50846  HIT:      48855  MISS:       1991
LLC PREFETCH  ACCESS:    2105419  HIT:    2052554  MISS:      52865
LLC WRITEBACK ACCESS:      91596  HIT:      91194  MISS:        402
LLC PREFETCH  REQUESTED:          0  ISSUED:          0  USEFUL:       6835  USELESS:      82818
LLC AVERAGE MISS LATENCY: 156.454 cycles
Major fault: 0 Minor fault: 6037
CPU 0 L1D next line prefetcher final stats

DRAM Statistics
 CHANNEL 0
 RQ ROW_BUFFER_HIT:      20527  ROW_BUFFER_MISS:      51776
 DBUS_CONGESTED:      29403
 WQ ROW_BUFFER_HIT:        393  ROW_BUFFER_MISS:       3179  FULL:          0

 AVG_CONGESTED_CYCLE: 5

CPU 0 Branch Prediction Accuracy: 99.7093% MPKI: 0.54708 Average ROB Occupancy at Mispredict: 99.9653

Branch types
NOT_BRANCH: 40590633 81.1813%
BRANCH_DIRECT_JUMP: 523489 1.04698%
BRANCH_INDIRECT: 166997 0.333994%
BRANCH_CONDITIONAL: 6365149 12.7303%
BRANCH_DIRECT_CALL: 989486 1.97897%
BRANCH_INDIRECT_CALL: 187202 0.374404%
BRANCH_RETURN: 1176691 2.35338%
BRANCH_OTHER: 0 0%

