Initialize SIGNATURE TABLE
ST_SET: 1
ST_WAY: 256
ST_TAG_BIT: 16
ST_TAG_MASK: ffff

Initialize PATTERN TABLE
PT_SET: 512
PT_WAY: 4
SIG_DELTA_BIT: 7
C_SIG_BIT: 4
C_DELTA_BIT: 4

Initialize PREFETCH FILTER
FILTER_SET: 1024

*** ChampSim Multicore Out-of-Order Simulator ***

Warmup Instructions: 50000000
Simulation Instructions: 50000000
Number of CPUs: 1
LLC sets: 2048
LLC ways: 16
Off-chip DRAM Size: 4096 MB Channels: 1 Width: 64-bit Data Rate: 3200 MT/s

CPU 0 runs /home/tongjie/ChampSim/ipc1_public/server_020.champsimtrace.xz
CPU 0 L1D next line prefetcher
Heartbeat CPU 0 instructions: 10000003 cycles: 3626998 heartbeat IPC: 2.7571 cumulative IPC: 2.7571 (Simulation time: 0 hr 0 min 25 sec) 
Heartbeat CPU 0 instructions: 20000002 cycles: 7258616 heartbeat IPC: 2.75359 cumulative IPC: 2.75535 (Simulation time: 0 hr 0 min 56 sec) 
Heartbeat CPU 0 instructions: 30000001 cycles: 10883366 heartbeat IPC: 2.75881 cumulative IPC: 2.7565 (Simulation time: 0 hr 1 min 22 sec) 
Heartbeat CPU 0 instructions: 40000002 cycles: 14509195 heartbeat IPC: 2.75799 cumulative IPC: 2.75687 (Simulation time: 0 hr 1 min 47 sec) 
Heartbeat CPU 0 instructions: 50000001 cycles: 18148459 heartbeat IPC: 2.74781 cumulative IPC: 2.75505 (Simulation time: 0 hr 2 min 12 sec) 

Warmup complete CPU 0 instructions: 50000001 cycles: 18148459 (Simulation time: 0 hr 2 min 12 sec) 

Heartbeat CPU 0 instructions: 60000003 cycles: 37852712 heartbeat IPC: 0.507505 cumulative IPC: 0.507505 (Simulation time: 0 hr 2 min 42 sec) 
Heartbeat CPU 0 instructions: 70000002 cycles: 57498154 heartbeat IPC: 0.509024 cumulative IPC: 0.508263 (Simulation time: 0 hr 3 min 13 sec) 
Heartbeat CPU 0 instructions: 80000002 cycles: 77015515 heartbeat IPC: 0.512364 cumulative IPC: 0.509623 (Simulation time: 0 hr 3 min 44 sec) 
Heartbeat CPU 0 instructions: 90000001 cycles: 96579955 heartbeat IPC: 0.511131 cumulative IPC: 0.509999 (Simulation time: 0 hr 4 min 15 sec) 
Heartbeat CPU 0 instructions: 100000002 cycles: 116185210 heartbeat IPC: 0.510067 cumulative IPC: 0.510013 (Simulation time: 0 hr 4 min 48 sec) 
Finished CPU 0 instructions: 50000001 cycles: 98036751 cumulative IPC: 0.510013 (Simulation time: 0 hr 4 min 48 sec) 

ChampSim completed all CPUs

Region of Interest Statistics

CPU 0 cumulative IPC: 0.510013 instructions: 50000001 cycles: 98036751
L1D TOTAL     ACCESS:   19941925  HIT:   17737816  MISS:    2204109
L1D LOAD      ACCESS:    7667774  HIT:    6944715  MISS:     723059
L1D RFO       ACCESS:    5855980  HIT:    4909982  MISS:     945998
L1D PREFETCH  ACCESS:    6418171  HIT:    5883119  MISS:     535052
L1D WRITEBACK ACCESS:          0  HIT:          0  MISS:          0
L1D PREFETCH  REQUESTED:   17139077  ISSUED:   16755871  USEFUL:     605351  USELESS:     683231
L1D AVERAGE MISS LATENCY: 171.294 cycles
L1I TOTAL     ACCESS:    9988700  HIT:    7587759  MISS:    2400941
L1I LOAD      ACCESS:    9988700  HIT:    7587759  MISS:    2400941
L1I RFO       ACCESS:          0  HIT:          0  MISS:          0
L1I PREFETCH  ACCESS:          0  HIT:          0  MISS:          0
L1I WRITEBACK ACCESS:          0  HIT:          0  MISS:          0
L1I PREFETCH  REQUESTED:          0  ISSUED:          0  USEFUL:          0  USELESS:          0
L1I AVERAGE MISS LATENCY: 17.6367 cycles
L2C TOTAL     ACCESS:    7928473  HIT:    6071162  MISS:    1857311
L2C LOAD      ACCESS:    2895656  HIT:    2505170  MISS:     390486
L2C RFO       ACCESS:     945645  HIT:      20264  MISS:     925381
L2C PREFETCH  ACCESS:    2923556  HIT:    2384432  MISS:     539124
L2C WRITEBACK ACCESS:    1163616  HIT:    1161296  MISS:       2320
L2C PREFETCH  REQUESTED:    9928000  ISSUED:    9869427  USEFUL:      45160  USELESS:    1026290
L2C AVERAGE MISS LATENCY: 208.017 cycles
LLC TOTAL     ACCESS:    4071520  HIT:    2628484  MISS:    1443036
LLC LOAD      ACCESS:     390062  HIT:     270766  MISS:     119296
LLC RFO       ACCESS:     925374  HIT:     137561  MISS:     787813
LLC PREFETCH  ACCESS:    1658774  HIT:    1124815  MISS:     533959
LLC WRITEBACK ACCESS:    1097310  HIT:    1095342  MISS:       1968
LLC PREFETCH  REQUESTED:          0  ISSUED:          0  USEFUL:      82572  USELESS:    1016663
LLC AVERAGE MISS LATENCY: 267.764 cycles
Major fault: 0 Minor fault: 22091
CPU 0 L1D next line prefetcher final stats

DRAM Statistics
 CHANNEL 0
 RQ ROW_BUFFER_HIT:     406789  ROW_BUFFER_MISS:    1034059
 DBUS_CONGESTED:    1409083
 WQ ROW_BUFFER_HIT:     259810  ROW_BUFFER_MISS:     628848  FULL:          0

 AVG_CONGESTED_CYCLE: 6

CPU 0 Branch Prediction Accuracy: 99.712% MPKI: 0.47638 Average ROB Occupancy at Mispredict: 179.165

Branch types
NOT_BRANCH: 41729374 83.4587%
BRANCH_DIRECT_JUMP: 458219 0.916438%
BRANCH_INDIRECT: 49088 0.098176%
BRANCH_CONDITIONAL: 5938510 11.877%
BRANCH_DIRECT_CALL: 745128 1.49026%
BRANCH_INDIRECT_CALL: 167106 0.334212%
BRANCH_RETURN: 912219 1.82444%
BRANCH_OTHER: 0 0%

