Initialize SIGNATURE TABLE
ST_SET: 1
ST_WAY: 256
ST_TAG_BIT: 16
ST_TAG_MASK: ffff

Initialize PATTERN TABLE
PT_SET: 512
PT_WAY: 4
SIG_DELTA_BIT: 7
C_SIG_BIT: 4
C_DELTA_BIT: 4

Initialize PREFETCH FILTER
FILTER_SET: 1024

*** ChampSim Multicore Out-of-Order Simulator ***

Warmup Instructions: 50000000
Simulation Instructions: 50000000
Number of CPUs: 1
LLC sets: 2048
LLC ways: 16
Off-chip DRAM Size: 4096 MB Channels: 1 Width: 64-bit Data Rate: 3200 MT/s

CPU 0 runs /home/tongjie/ChampSim/ipc1_public/server_037.champsimtrace.xz
CPU 0 L1D next line prefetcher
Heartbeat CPU 0 instructions: 10000001 cycles: 3324384 heartbeat IPC: 3.00808 cumulative IPC: 3.00808 (Simulation time: 0 hr 0 min 25 sec) 
Heartbeat CPU 0 instructions: 20000002 cycles: 6646499 heartbeat IPC: 3.01013 cumulative IPC: 3.0091 (Simulation time: 0 hr 0 min 49 sec) 
Heartbeat CPU 0 instructions: 30000003 cycles: 10016512 heartbeat IPC: 2.96735 cumulative IPC: 2.99505 (Simulation time: 0 hr 1 min 12 sec) 
Heartbeat CPU 0 instructions: 40000000 cycles: 13340888 heartbeat IPC: 3.00808 cumulative IPC: 2.9983 (Simulation time: 0 hr 1 min 36 sec) 
Heartbeat CPU 0 instructions: 50000003 cycles: 16664251 heartbeat IPC: 3.009 cumulative IPC: 3.00044 (Simulation time: 0 hr 2 min 0 sec) 

Warmup complete CPU 0 instructions: 50000003 cycles: 16664251 (Simulation time: 0 hr 2 min 0 sec) 

Heartbeat CPU 0 instructions: 60000001 cycles: 27308578 heartbeat IPC: 0.939467 cumulative IPC: 0.939467 (Simulation time: 0 hr 2 min 19 sec) 
Heartbeat CPU 0 instructions: 70000000 cycles: 38031779 heartbeat IPC: 0.932557 cumulative IPC: 0.936 (Simulation time: 0 hr 2 min 39 sec) 
Heartbeat CPU 0 instructions: 80000002 cycles: 48674726 heartbeat IPC: 0.93959 cumulative IPC: 0.937193 (Simulation time: 0 hr 2 min 58 sec) 
Heartbeat CPU 0 instructions: 90000002 cycles: 59337538 heartbeat IPC: 0.937839 cumulative IPC: 0.937355 (Simulation time: 0 hr 3 min 16 sec) 
*** Reached end of trace for Core: 0 Repeating trace: /home/tongjie/ChampSim/ipc1_public/server_037.champsimtrace.xz
Heartbeat CPU 0 instructions: 100000000 cycles: 69995409 heartbeat IPC: 0.938273 cumulative IPC: 0.937538 (Simulation time: 0 hr 3 min 35 sec) 
Finished CPU 0 instructions: 50000001 cycles: 53331159 cumulative IPC: 0.937538 (Simulation time: 0 hr 3 min 35 sec) 

ChampSim completed all CPUs

Region of Interest Statistics

CPU 0 cumulative IPC: 0.937538 instructions: 50000001 cycles: 53331159
L1D TOTAL     ACCESS:   22120084  HIT:   21139517  MISS:     980567
L1D LOAD      ACCESS:    7994441  HIT:    7507132  MISS:     487309
L1D RFO       ACCESS:    6290863  HIT:    6222217  MISS:      68646
L1D PREFETCH  ACCESS:    7834780  HIT:    7410168  MISS:     424612
L1D WRITEBACK ACCESS:          0  HIT:          0  MISS:          0
L1D PREFETCH  REQUESTED:   17068268  ISSUED:   16716627  USEFUL:     236044  USELESS:     613504
L1D AVERAGE MISS LATENCY: 28.6711 cycles
L1I TOTAL     ACCESS:    9459799  HIT:    5425880  MISS:    4033919
L1I LOAD      ACCESS:    9459799  HIT:    5425880  MISS:    4033919
L1I RFO       ACCESS:          0  HIT:          0  MISS:          0
L1I PREFETCH  ACCESS:          0  HIT:          0  MISS:          0
L1I WRITEBACK ACCESS:          0  HIT:          0  MISS:          0
L1I PREFETCH  REQUESTED:          0  ISSUED:          0  USEFUL:          0  USELESS:          0
L1I AVERAGE MISS LATENCY: 14.2649 cycles
L2C TOTAL     ACCESS:    9282750  HIT:    8968010  MISS:     314740
L2C LOAD      ACCESS:    4515862  HIT:    4368599  MISS:     147263
L2C RFO       ACCESS:      68454  HIT:      41253  MISS:      27201
L2C PREFETCH  ACCESS:    4408122  HIT:    4268780  MISS:     139342
L2C WRITEBACK ACCESS:     290312  HIT:     289378  MISS:        934
L2C PREFETCH  REQUESTED:   11325603  ISSUED:   11291433  USEFUL:      14071  USELESS:     260262
L2C AVERAGE MISS LATENCY: 45.7675 cycles
LLC TOTAL     ACCESS:    1675684  HIT:    1622656  MISS:      53028
LLC LOAD      ACCESS:     147216  HIT:     133499  MISS:      13717
LLC RFO       ACCESS:      27200  HIT:      22449  MISS:       4751
LLC PREFETCH  ACCESS:    1364135  HIT:    1330053  MISS:      34082
LLC WRITEBACK ACCESS:     137133  HIT:     136655  MISS:        478
LLC PREFETCH  REQUESTED:          0  ISSUED:          0  USEFUL:       7855  USELESS:      49981
LLC AVERAGE MISS LATENCY: 163.622 cycles
Major fault: 0 Minor fault: 5652
CPU 0 L1D next line prefetcher final stats

DRAM Statistics
 CHANNEL 0
 RQ ROW_BUFFER_HIT:       8383  ROW_BUFFER_MISS:      44167
 DBUS_CONGESTED:      23922
 WQ ROW_BUFFER_HIT:       1344  ROW_BUFFER_MISS:      10339  FULL:          0

 AVG_CONGESTED_CYCLE: 5

CPU 0 Branch Prediction Accuracy: 99.913% MPKI: 0.15656 Average ROB Occupancy at Mispredict: 31.1383

Branch types
NOT_BRANCH: 41001560 82.0031%
BRANCH_DIRECT_JUMP: 541940 1.08388%
BRANCH_INDIRECT: 59716 0.119432%
BRANCH_CONDITIONAL: 5916841 11.8337%
BRANCH_DIRECT_CALL: 1005458 2.01092%
BRANCH_INDIRECT_CALL: 234433 0.468866%
BRANCH_RETURN: 1239866 2.47973%
BRANCH_OTHER: 0 0%

