Initialize SIGNATURE TABLE
ST_SET: 1
ST_WAY: 256
ST_TAG_BIT: 16
ST_TAG_MASK: ffff

Initialize PATTERN TABLE
PT_SET: 512
PT_WAY: 4
SIG_DELTA_BIT: 7
C_SIG_BIT: 4
C_DELTA_BIT: 4

Initialize PREFETCH FILTER
FILTER_SET: 1024

*** ChampSim Multicore Out-of-Order Simulator ***

Warmup Instructions: 50000000
Simulation Instructions: 50000000
Number of CPUs: 1
LLC sets: 2048
LLC ways: 16
Off-chip DRAM Size: 4096 MB Channels: 1 Width: 64-bit Data Rate: 3200 MT/s

CPU 0 runs /home/tongjie/ChampSim/ipc1_public/spec_gcc_003.champsimtrace.xz
CPU 0 L1D next line prefetcher
Heartbeat CPU 0 instructions: 10000001 cycles: 3483341 heartbeat IPC: 2.87081 cumulative IPC: 2.87081 (Simulation time: 0 hr 0 min 20 sec) 
Heartbeat CPU 0 instructions: 20000000 cycles: 6964354 heartbeat IPC: 2.87273 cumulative IPC: 2.87177 (Simulation time: 0 hr 0 min 39 sec) 
Heartbeat CPU 0 instructions: 30000002 cycles: 10409473 heartbeat IPC: 2.90266 cumulative IPC: 2.88199 (Simulation time: 0 hr 0 min 57 sec) 
Heartbeat CPU 0 instructions: 40000000 cycles: 13877546 heartbeat IPC: 2.88345 cumulative IPC: 2.88235 (Simulation time: 0 hr 1 min 15 sec) 
Heartbeat CPU 0 instructions: 50000001 cycles: 17189599 heartbeat IPC: 3.01928 cumulative IPC: 2.90874 (Simulation time: 0 hr 1 min 31 sec) 

Warmup complete CPU 0 instructions: 50000001 cycles: 17189599 (Simulation time: 0 hr 1 min 31 sec) 

Heartbeat CPU 0 instructions: 60000000 cycles: 59635344 heartbeat IPC: 0.235595 cumulative IPC: 0.235595 (Simulation time: 0 hr 2 min 17 sec) 
Heartbeat CPU 0 instructions: 70000000 cycles: 105225089 heartbeat IPC: 0.219348 cumulative IPC: 0.227181 (Simulation time: 0 hr 3 min 4 sec) 
Heartbeat CPU 0 instructions: 80000002 cycles: 151530184 heartbeat IPC: 0.215959 cumulative IPC: 0.223313 (Simulation time: 0 hr 3 min 50 sec) 
Heartbeat CPU 0 instructions: 90000002 cycles: 190643537 heartbeat IPC: 0.255667 cumulative IPC: 0.230609 (Simulation time: 0 hr 4 min 29 sec) 
Heartbeat CPU 0 instructions: 100000001 cycles: 239305773 heartbeat IPC: 0.205498 cumulative IPC: 0.225107 (Simulation time: 0 hr 5 min 14 sec) 
Finished CPU 0 instructions: 50000000 cycles: 222116174 cumulative IPC: 0.225107 (Simulation time: 0 hr 5 min 14 sec) 

ChampSim completed all CPUs

Region of Interest Statistics

CPU 0 cumulative IPC: 0.225107 instructions: 50000000 cycles: 222116174
L1D TOTAL     ACCESS:   17555721  HIT:   11830860  MISS:    5724861
L1D LOAD      ACCESS:    4892003  HIT:    4511037  MISS:     380966
L1D RFO       ACCESS:    8252488  HIT:    3200283  MISS:    5052205
L1D PREFETCH  ACCESS:    4411230  HIT:    4119540  MISS:     291690
L1D WRITEBACK ACCESS:          0  HIT:          0  MISS:          0
L1D PREFETCH  REQUESTED:   10955607  ISSUED:   10805113  USEFUL:     387752  USELESS:     272029
L1D AVERAGE MISS LATENCY: 496.188 cycles
L1I TOTAL     ACCESS:   11294456  HIT:   10617079  MISS:     677377
L1I LOAD      ACCESS:   11294456  HIT:   10617079  MISS:     677377
L1I RFO       ACCESS:          0  HIT:          0  MISS:          0
L1I PREFETCH  ACCESS:          0  HIT:          0  MISS:          0
L1I WRITEBACK ACCESS:          0  HIT:          0  MISS:          0
L1I PREFETCH  REQUESTED:          0  ISSUED:          0  USEFUL:          0  USELESS:          0
L1I AVERAGE MISS LATENCY: 66.6968 cycles
L2C TOTAL     ACCESS:   11915712  HIT:    5936044  MISS:    5979668
L2C LOAD      ACCESS:     882143  HIT:     379616  MISS:     502527
L2C RFO       ACCESS:    5050498  HIT:       6623  MISS:    5043875
L2C PREFETCH  ACCESS:     825094  HIT:     391915  MISS:     433179
L2C WRITEBACK ACCESS:    5157977  HIT:    5157890  MISS:         87
L2C PREFETCH  REQUESTED:    4402914  ISSUED:    4394181  USEFUL:      18156  USELESS:    1079483
L2C AVERAGE MISS LATENCY: 468.324 cycles
LLC TOTAL     ACCESS:   11883329  HIT:    7124538  MISS:    4758791
LLC LOAD      ACCESS:     502448  HIT:     346433  MISS:     156015
LLC RFO       ACCESS:    5043874  HIT:     640209  MISS:    4403665
LLC PREFETCH  ACCESS:    1202961  HIT:    1003850  MISS:     199111
LLC WRITEBACK ACCESS:    5134046  HIT:    5134046  MISS:          0
LLC PREFETCH  REQUESTED:          0  ISSUED:          0  USEFUL:     156463  USELESS:     295038
LLC AVERAGE MISS LATENCY: 558.835 cycles
Major fault: 0 Minor fault: 2817
CPU 0 L1D next line prefetcher final stats

DRAM Statistics
 CHANNEL 0
 RQ ROW_BUFFER_HIT:    1442694  ROW_BUFFER_MISS:    3316058
 DBUS_CONGESTED:    8142709
 WQ ROW_BUFFER_HIT:    1221563  ROW_BUFFER_MISS:    3210801  FULL:          0

 AVG_CONGESTED_CYCLE: 6

CPU 0 Branch Prediction Accuracy: 99.665% MPKI: 0.78342 Average ROB Occupancy at Mispredict: 72.9268

Branch types
NOT_BRANCH: 38305858 76.6117%
BRANCH_DIRECT_JUMP: 384281 0.768562%
BRANCH_INDIRECT: 71949 0.143898%
BRANCH_CONDITIONAL: 9879825 19.7597%
BRANCH_DIRECT_CALL: 650586 1.30117%
BRANCH_INDIRECT_CALL: 28456 0.056912%
BRANCH_RETURN: 679046 1.35809%
BRANCH_OTHER: 0 0%

