Initialize SIGNATURE TABLE
ST_SET: 1
ST_WAY: 256
ST_TAG_BIT: 16
ST_TAG_MASK: ffff

Initialize PATTERN TABLE
PT_SET: 512
PT_WAY: 4
SIG_DELTA_BIT: 7
C_SIG_BIT: 4
C_DELTA_BIT: 4

Initialize PREFETCH FILTER
FILTER_SET: 1024

*** ChampSim Multicore Out-of-Order Simulator ***

Warmup Instructions: 50000000
Simulation Instructions: 50000000
Number of CPUs: 1
LLC sets: 2048
LLC ways: 16
Off-chip DRAM Size: 4096 MB Channels: 1 Width: 64-bit Data Rate: 3200 MT/s

CPU 0 runs /home/tongjie/ChampSim/ipc1_public/spec_perlbench_001.champsimtrace.xz
CPU 0 L1D next line prefetcher
Heartbeat CPU 0 instructions: 10000000 cycles: 3276011 heartbeat IPC: 3.05249 cumulative IPC: 3.05249 (Simulation time: 0 hr 0 min 22 sec) 
Heartbeat CPU 0 instructions: 20000000 cycles: 6540918 heartbeat IPC: 3.06287 cumulative IPC: 3.05767 (Simulation time: 0 hr 0 min 45 sec) 
Heartbeat CPU 0 instructions: 30000002 cycles: 9858114 heartbeat IPC: 3.01459 cumulative IPC: 3.04318 (Simulation time: 0 hr 1 min 8 sec) 
Heartbeat CPU 0 instructions: 40000002 cycles: 13113868 heartbeat IPC: 3.07149 cumulative IPC: 3.05021 (Simulation time: 0 hr 1 min 30 sec) 
Heartbeat CPU 0 instructions: 50000001 cycles: 16387599 heartbeat IPC: 3.05462 cumulative IPC: 3.05109 (Simulation time: 0 hr 1 min 51 sec) 

Warmup complete CPU 0 instructions: 50000001 cycles: 16387599 (Simulation time: 0 hr 1 min 51 sec) 

Heartbeat CPU 0 instructions: 60000001 cycles: 25221338 heartbeat IPC: 1.13202 cumulative IPC: 1.13202 (Simulation time: 0 hr 2 min 13 sec) 
Heartbeat CPU 0 instructions: 70000000 cycles: 34161627 heartbeat IPC: 1.11853 cumulative IPC: 1.12524 (Simulation time: 0 hr 2 min 35 sec) 
Heartbeat CPU 0 instructions: 80000000 cycles: 42916806 heartbeat IPC: 1.14218 cumulative IPC: 1.13083 (Simulation time: 0 hr 2 min 55 sec) 
Heartbeat CPU 0 instructions: 90000000 cycles: 48753829 heartbeat IPC: 1.7132 cumulative IPC: 1.23586 (Simulation time: 0 hr 3 min 10 sec) 
Heartbeat CPU 0 instructions: 100000002 cycles: 54751816 heartbeat IPC: 1.66723 cumulative IPC: 1.3033 (Simulation time: 0 hr 3 min 25 sec) 
Finished CPU 0 instructions: 50000001 cycles: 38364217 cumulative IPC: 1.3033 (Simulation time: 0 hr 3 min 25 sec) 

ChampSim completed all CPUs

Region of Interest Statistics

CPU 0 cumulative IPC: 1.3033 instructions: 50000001 cycles: 38364217
L1D TOTAL     ACCESS:   20947535  HIT:   20532378  MISS:     415157
L1D LOAD      ACCESS:    7296016  HIT:    7082915  MISS:     213101
L1D RFO       ACCESS:    6548272  HIT:    6529766  MISS:      18506
L1D PREFETCH  ACCESS:    7103247  HIT:    6919697  MISS:     183550
L1D WRITEBACK ACCESS:          0  HIT:          0  MISS:          0
L1D PREFETCH  REQUESTED:   16243667  ISSUED:   15950121  USEFUL:     124661  USELESS:     277772
L1D AVERAGE MISS LATENCY: 57.4102 cycles
L1I TOTAL     ACCESS:    9199446  HIT:    8891897  MISS:     307549
L1I LOAD      ACCESS:    9199446  HIT:    8891897  MISS:     307549
L1I RFO       ACCESS:          0  HIT:          0  MISS:          0
L1I PREFETCH  ACCESS:          0  HIT:          0  MISS:          0
L1I WRITEBACK ACCESS:          0  HIT:          0  MISS:          0
L1I PREFETCH  REQUESTED:          0  ISSUED:          0  USEFUL:          0  USELESS:          0
L1I AVERAGE MISS LATENCY: 18.874 cycles
L2C TOTAL     ACCESS:    1122084  HIT:     958292  MISS:     163792
L2C LOAD      ACCESS:     514558  HIT:     420819  MISS:      93739
L2C RFO       ACCESS:      18290  HIT:      13025  MISS:       5265
L2C PREFETCH  ACCESS:     510284  HIT:     445806  MISS:      64478
L2C WRITEBACK ACCESS:      78952  HIT:      78642  MISS:        310
L2C PREFETCH  REQUESTED:    1289463  ISSUED:    1289424  USEFUL:       8205  USELESS:     121278
L2C AVERAGE MISS LATENCY: 117.841 cycles
LLC TOTAL     ACCESS:     360643  HIT:     218776  MISS:     141867
LLC LOAD      ACCESS:      93728  HIT:      42720  MISS:      51008
LLC RFO       ACCESS:       5265  HIT:       2216  MISS:       3049
LLC PREFETCH  ACCESS:     236893  HIT:     149595  MISS:      87298
LLC WRITEBACK ACCESS:      24757  HIT:      24245  MISS:        512
LLC PREFETCH  REQUESTED:          0  ISSUED:          0  USEFUL:      31199  USELESS:     129611
LLC AVERAGE MISS LATENCY: 157.918 cycles
Major fault: 0 Minor fault: 6364
CPU 0 L1D next line prefetcher final stats

DRAM Statistics
 CHANNEL 0
 RQ ROW_BUFFER_HIT:      32192  ROW_BUFFER_MISS:     109163
 DBUS_CONGESTED:      56969
 WQ ROW_BUFFER_HIT:       4310  ROW_BUFFER_MISS:      13007  FULL:          0

 AVG_CONGESTED_CYCLE: 4

CPU 0 Branch Prediction Accuracy: 98.7418% MPKI: 2.47758 Average ROB Occupancy at Mispredict: 67.8481

Branch types
NOT_BRANCH: 40154109 80.3082%
BRANCH_DIRECT_JUMP: 817094 1.63419%
BRANCH_INDIRECT: 303788 0.607576%
BRANCH_CONDITIONAL: 7492104 14.9842%
BRANCH_DIRECT_CALL: 471777 0.943554%
BRANCH_INDIRECT_CALL: 144546 0.289092%
BRANCH_RETURN: 616324 1.23265%
BRANCH_OTHER: 0 0%

