Initialize SIGNATURE TABLE
ST_SET: 1
ST_WAY: 256
ST_TAG_BIT: 16
ST_TAG_MASK: ffff

Initialize PATTERN TABLE
PT_SET: 512
PT_WAY: 4
SIG_DELTA_BIT: 7
C_SIG_BIT: 4
C_DELTA_BIT: 4

Initialize PREFETCH FILTER
FILTER_SET: 1024

*** ChampSim Multicore Out-of-Order Simulator ***

Warmup Instructions: 50000000
Simulation Instructions: 50000000
Number of CPUs: 1
LLC sets: 2048
LLC ways: 16
Off-chip DRAM Size: 4096 MB Channels: 1 Width: 64-bit Data Rate: 3200 MT/s

CPU 0 runs /home/tongjie/ChampSim/ipc1_public/spec_gcc_001.champsimtrace.xz
CPU 0 L1D next line prefetcher
Heartbeat CPU 0 instructions: 10000003 cycles: 3219077 heartbeat IPC: 3.10648 cumulative IPC: 3.10648 (Simulation time: 0 hr 0 min 23 sec) 
Heartbeat CPU 0 instructions: 20000002 cycles: 6463308 heartbeat IPC: 3.08239 cumulative IPC: 3.09439 (Simulation time: 0 hr 0 min 46 sec) 
Heartbeat CPU 0 instructions: 30000000 cycles: 9664455 heartbeat IPC: 3.12388 cumulative IPC: 3.10416 (Simulation time: 0 hr 1 min 6 sec) 
Heartbeat CPU 0 instructions: 40000001 cycles: 12904589 heartbeat IPC: 3.08629 cumulative IPC: 3.09967 (Simulation time: 0 hr 1 min 27 sec) 
Heartbeat CPU 0 instructions: 50000001 cycles: 16144527 heartbeat IPC: 3.08648 cumulative IPC: 3.09702 (Simulation time: 0 hr 1 min 47 sec) 

Warmup complete CPU 0 instructions: 50000001 cycles: 16144527 (Simulation time: 0 hr 1 min 47 sec) 

Heartbeat CPU 0 instructions: 60000000 cycles: 24347829 heartbeat IPC: 1.21902 cumulative IPC: 1.21902 (Simulation time: 0 hr 2 min 6 sec) 
Heartbeat CPU 0 instructions: 70000002 cycles: 32591314 heartbeat IPC: 1.21308 cumulative IPC: 1.21604 (Simulation time: 0 hr 2 min 25 sec) 
Heartbeat CPU 0 instructions: 80000000 cycles: 40328657 heartbeat IPC: 1.29243 cumulative IPC: 1.24048 (Simulation time: 0 hr 2 min 44 sec) 
Heartbeat CPU 0 instructions: 90000001 cycles: 48554895 heartbeat IPC: 1.21562 cumulative IPC: 1.23417 (Simulation time: 0 hr 3 min 3 sec) 
Heartbeat CPU 0 instructions: 100000000 cycles: 57118148 heartbeat IPC: 1.16778 cumulative IPC: 1.2203 (Simulation time: 0 hr 3 min 24 sec) 
Finished CPU 0 instructions: 50000000 cycles: 40973625 cumulative IPC: 1.2203 (Simulation time: 0 hr 3 min 24 sec) 

ChampSim completed all CPUs

Region of Interest Statistics

CPU 0 cumulative IPC: 1.2203 instructions: 50000000 cycles: 40973625
L1D TOTAL     ACCESS:   19507715  HIT:   18402496  MISS:    1105219
L1D LOAD      ACCESS:    7319749  HIT:    6841857  MISS:     477892
L1D RFO       ACCESS:    5124619  HIT:    5045127  MISS:      79492
L1D PREFETCH  ACCESS:    7063347  HIT:    6515512  MISS:     547835
L1D WRITEBACK ACCESS:          0  HIT:          0  MISS:          0
L1D PREFETCH  REQUESTED:   16426435  ISSUED:   16199587  USEFUL:     405579  USELESS:     404145
L1D AVERAGE MISS LATENCY: 24.874 cycles
L1I TOTAL     ACCESS:    9321405  HIT:    9101348  MISS:     220057
L1I LOAD      ACCESS:    9321405  HIT:    9101348  MISS:     220057
L1I RFO       ACCESS:          0  HIT:          0  MISS:          0
L1I PREFETCH  ACCESS:          0  HIT:          0  MISS:          0
L1I WRITEBACK ACCESS:          0  HIT:          0  MISS:          0
L1I PREFETCH  REQUESTED:          0  ISSUED:          0  USEFUL:          0  USELESS:          0
L1I AVERAGE MISS LATENCY: 25.395 cycles
L2C TOTAL     ACCESS:    2404096  HIT:    2182221  MISS:     221875
L2C LOAD      ACCESS:     671183  HIT:     572544  MISS:      98639
L2C RFO       ACCESS:      75063  HIT:      37951  MISS:      37112
L2C PREFETCH  ACCESS:    1404093  HIT:    1318348  MISS:      85745
L2C WRITEBACK ACCESS:     253757  HIT:     253378  MISS:        379
L2C PREFETCH  REQUESTED:    2714688  ISSUED:    2711760  USEFUL:      35450  USELESS:      85803
L2C AVERAGE MISS LATENCY: 64.268 cycles
LLC TOTAL     ACCESS:     563405  HIT:     493484  MISS:      69921
LLC LOAD      ACCESS:      98445  HIT:      85882  MISS:      12563
LLC RFO       ACCESS:      37112  HIT:      16755  MISS:      20357
LLC PREFETCH  ACCESS:     342111  HIT:     306205  MISS:      35906
LLC WRITEBACK ACCESS:      85737  HIT:      84642  MISS:       1095
LLC PREFETCH  REQUESTED:          0  ISSUED:          0  USEFUL:      49470  USELESS:      60338
LLC AVERAGE MISS LATENCY: 184.617 cycles
Major fault: 0 Minor fault: 6865
CPU 0 L1D next line prefetcher final stats

DRAM Statistics
 CHANNEL 0
 RQ ROW_BUFFER_HIT:      19396  ROW_BUFFER_MISS:      49429
 DBUS_CONGESTED:      34917
 WQ ROW_BUFFER_HIT:       4594  ROW_BUFFER_MISS:      21985  FULL:          0

 AVG_CONGESTED_CYCLE: 6

CPU 0 Branch Prediction Accuracy: 95.8872% MPKI: 9.67286 Average ROB Occupancy at Mispredict: 59.7947

Branch types
NOT_BRANCH: 38240102 76.4802%
BRANCH_DIRECT_JUMP: 653296 1.30659%
BRANCH_INDIRECT: 37098 0.074196%
BRANCH_CONDITIONAL: 8897819 17.7956%
BRANCH_DIRECT_CALL: 992620 1.98524%
BRANCH_INDIRECT_CALL: 93046 0.186092%
BRANCH_RETURN: 1085674 2.17135%
BRANCH_OTHER: 0 0%

