Initialize SIGNATURE TABLE
ST_SET: 1
ST_WAY: 256
ST_TAG_BIT: 16
ST_TAG_MASK: ffff

Initialize PATTERN TABLE
PT_SET: 512
PT_WAY: 4
SIG_DELTA_BIT: 7
C_SIG_BIT: 4
C_DELTA_BIT: 4

Initialize PREFETCH FILTER
FILTER_SET: 1024

*** ChampSim Multicore Out-of-Order Simulator ***

Warmup Instructions: 50000000
Simulation Instructions: 50000000
Number of CPUs: 1
LLC sets: 2048
LLC ways: 16
Off-chip DRAM Size: 4096 MB Channels: 1 Width: 64-bit Data Rate: 3200 MT/s

CPU 0 runs /home/tongjie/ChampSim/ipc1_public/spec_gobmk_001.champsimtrace.xz
CPU 0 L1D next line prefetcher
Heartbeat CPU 0 instructions: 10000003 cycles: 3506620 heartbeat IPC: 2.85175 cumulative IPC: 2.85175 (Simulation time: 0 hr 0 min 20 sec) 
Heartbeat CPU 0 instructions: 20000002 cycles: 6986659 heartbeat IPC: 2.87353 cumulative IPC: 2.8626 (Simulation time: 0 hr 0 min 40 sec) 
Heartbeat CPU 0 instructions: 30000002 cycles: 10505217 heartbeat IPC: 2.84207 cumulative IPC: 2.85572 (Simulation time: 0 hr 1 min 1 sec) 
Heartbeat CPU 0 instructions: 40000001 cycles: 14023982 heartbeat IPC: 2.84191 cumulative IPC: 2.85226 (Simulation time: 0 hr 1 min 21 sec) 
Heartbeat CPU 0 instructions: 50000001 cycles: 17563741 heartbeat IPC: 2.82505 cumulative IPC: 2.84677 (Simulation time: 0 hr 1 min 41 sec) 

Warmup complete CPU 0 instructions: 50000001 cycles: 17563741 (Simulation time: 0 hr 1 min 41 sec) 

Heartbeat CPU 0 instructions: 60000000 cycles: 26935674 heartbeat IPC: 1.06702 cumulative IPC: 1.06702 (Simulation time: 0 hr 1 min 59 sec) 
Heartbeat CPU 0 instructions: 70000002 cycles: 36033308 heartbeat IPC: 1.09919 cumulative IPC: 1.08286 (Simulation time: 0 hr 2 min 16 sec) 
Heartbeat CPU 0 instructions: 80000003 cycles: 45464219 heartbeat IPC: 1.06034 cumulative IPC: 1.07525 (Simulation time: 0 hr 2 min 34 sec) 
Heartbeat CPU 0 instructions: 90000001 cycles: 54510804 heartbeat IPC: 1.10539 cumulative IPC: 1.08263 (Simulation time: 0 hr 2 min 49 sec) 
Heartbeat CPU 0 instructions: 100000003 cycles: 63921261 heartbeat IPC: 1.06265 cumulative IPC: 1.07857 (Simulation time: 0 hr 3 min 5 sec) 
Finished CPU 0 instructions: 50000002 cycles: 46357520 cumulative IPC: 1.07857 (Simulation time: 0 hr 3 min 5 sec) 

ChampSim completed all CPUs

Region of Interest Statistics

CPU 0 cumulative IPC: 1.07857 instructions: 50000002 cycles: 46357520
L1D TOTAL     ACCESS:   18230146  HIT:   17850470  MISS:     379676
L1D LOAD      ACCESS:    7325477  HIT:    7190374  MISS:     135103
L1D RFO       ACCESS:    3714747  HIT:    3610319  MISS:     104428
L1D PREFETCH  ACCESS:    7189922  HIT:    7049777  MISS:     140145
L1D WRITEBACK ACCESS:          0  HIT:          0  MISS:          0
L1D PREFETCH  REQUESTED:   15785062  ISSUED:   15584870  USEFUL:     120183  USELESS:     203419
L1D AVERAGE MISS LATENCY: 33.5357 cycles
L1I TOTAL     ACCESS:    8990819  HIT:    8666330  MISS:     324489
L1I LOAD      ACCESS:    8990819  HIT:    8666330  MISS:     324489
L1I RFO       ACCESS:          0  HIT:          0  MISS:          0
L1I PREFETCH  ACCESS:          0  HIT:          0  MISS:          0
L1I WRITEBACK ACCESS:          0  HIT:          0  MISS:          0
L1I PREFETCH  REQUESTED:          0  ISSUED:          0  USEFUL:          0  USELESS:          0
L1I AVERAGE MISS LATENCY: 15.6158 cycles
L2C TOTAL     ACCESS:    1215353  HIT:    1092515  MISS:     122838
L2C LOAD      ACCESS:     435205  HIT:     390535  MISS:      44670
L2C RFO       ACCESS:     104139  HIT:      70516  MISS:      33623
L2C PREFETCH  ACCESS:     536690  HIT:     492194  MISS:      44496
L2C WRITEBACK ACCESS:     139319  HIT:     139270  MISS:         49
L2C PREFETCH  REQUESTED:    1186498  ISSUED:    1180351  USEFUL:       8644  USELESS:      97784
L2C AVERAGE MISS LATENCY: 65.5518 cycles
LLC TOTAL     ACCESS:     264579  HIT:     228335  MISS:      36244
LLC LOAD      ACCESS:      44665  HIT:      35983  MISS:       8682
LLC RFO       ACCESS:      33623  HIT:      26714  MISS:       6909
LLC PREFETCH  ACCESS:     141982  HIT:     121639  MISS:      20343
LLC WRITEBACK ACCESS:      44309  HIT:      43999  MISS:        310
LLC PREFETCH  REQUESTED:          0  ISSUED:          0  USEFUL:       8642  USELESS:      38294
LLC AVERAGE MISS LATENCY: 179.184 cycles
Major fault: 0 Minor fault: 4156
CPU 0 L1D next line prefetcher final stats

DRAM Statistics
 CHANNEL 0
 RQ ROW_BUFFER_HIT:       4740  ROW_BUFFER_MISS:      31193
 DBUS_CONGESTED:      21004
 WQ ROW_BUFFER_HIT:       1521  ROW_BUFFER_MISS:      14759  FULL:          0

 AVG_CONGESTED_CYCLE: 4

CPU 0 Branch Prediction Accuracy: 94.7729% MPKI: 9.72684 Average ROB Occupancy at Mispredict: 49.0432

Branch types
NOT_BRANCH: 40695396 81.3908%
BRANCH_DIRECT_JUMP: 422107 0.844214%
BRANCH_INDIRECT: 65 0.00013%
BRANCH_CONDITIONAL: 8105005 16.21%
BRANCH_DIRECT_CALL: 374913 0.749826%
BRANCH_INDIRECT_CALL: 13657 0.027314%
BRANCH_RETURN: 388556 0.777112%
BRANCH_OTHER: 0 0%

