Initialize SIGNATURE TABLE
ST_SET: 1
ST_WAY: 256
ST_TAG_BIT: 16
ST_TAG_MASK: ffff

Initialize PATTERN TABLE
PT_SET: 512
PT_WAY: 4
SIG_DELTA_BIT: 7
C_SIG_BIT: 4
C_DELTA_BIT: 4

Initialize PREFETCH FILTER
FILTER_SET: 1024

*** ChampSim Multicore Out-of-Order Simulator ***

Warmup Instructions: 50000000
Simulation Instructions: 50000000
Number of CPUs: 1
LLC sets: 2048
LLC ways: 16
Off-chip DRAM Size: 4096 MB Channels: 1 Width: 64-bit Data Rate: 3200 MT/s

CPU 0 runs /u/j/t/jtong/ChampSim/ipc1_public/client_003.champsimtrace.xz
CPU 0 L1D next line prefetcher
Heartbeat CPU 0 instructions: 10000000 cycles: 3478129 heartbeat IPC: 2.87511 cumulative IPC: 2.87511 (Simulation time: 0 hr 0 min 27 sec) 
Heartbeat CPU 0 instructions: 20000002 cycles: 6932126 heartbeat IPC: 2.8952 cumulative IPC: 2.88512 (Simulation time: 0 hr 0 min 58 sec) 
Heartbeat CPU 0 instructions: 30000003 cycles: 10493113 heartbeat IPC: 2.80821 cumulative IPC: 2.85902 (Simulation time: 0 hr 1 min 23 sec) 
Heartbeat CPU 0 instructions: 40000001 cycles: 14109576 heartbeat IPC: 2.76513 cumulative IPC: 2.83495 (Simulation time: 0 hr 1 min 49 sec) 
Heartbeat CPU 0 instructions: 50000003 cycles: 17654666 heartbeat IPC: 2.8208 cumulative IPC: 2.83211 (Simulation time: 0 hr 2 min 14 sec) 

Warmup complete CPU 0 instructions: 50000003 cycles: 17654666 (Simulation time: 0 hr 2 min 14 sec) 

Heartbeat CPU 0 instructions: 60000002 cycles: 24325845 heartbeat IPC: 1.49899 cumulative IPC: 1.49899 (Simulation time: 0 hr 2 min 37 sec) 
Heartbeat CPU 0 instructions: 70000001 cycles: 30747976 heartbeat IPC: 1.55712 cumulative IPC: 1.5275 (Simulation time: 0 hr 3 min 0 sec) 
Heartbeat CPU 0 instructions: 80000000 cycles: 38318779 heartbeat IPC: 1.32086 cumulative IPC: 1.45179 (Simulation time: 0 hr 3 min 22 sec) 
Heartbeat CPU 0 instructions: 90000000 cycles: 47635231 heartbeat IPC: 1.07337 cumulative IPC: 1.3342 (Simulation time: 0 hr 3 min 41 sec) 
Heartbeat CPU 0 instructions: 100000003 cycles: 58528408 heartbeat IPC: 0.918006 cumulative IPC: 1.22328 (Simulation time: 0 hr 4 min 4 sec) 
Finished CPU 0 instructions: 50000000 cycles: 40873742 cumulative IPC: 1.22328 (Simulation time: 0 hr 4 min 4 sec) 

ChampSim completed all CPUs

Region of Interest Statistics

CPU 0 cumulative IPC: 1.22328 instructions: 50000000 cycles: 40873742
L1D TOTAL     ACCESS:   17928665  HIT:   17432500  MISS:     496165
L1D LOAD      ACCESS:    6180518  HIT:    6054383  MISS:     126135
L1D RFO       ACCESS:    5959674  HIT:    5725508  MISS:     234166
L1D PREFETCH  ACCESS:    5788473  HIT:    5652609  MISS:     135864
L1D WRITEBACK ACCESS:          0  HIT:          0  MISS:          0
L1D PREFETCH  REQUESTED:   15600152  ISSUED:   15289235  USEFUL:     120250  USELESS:     161355
L1D AVERAGE MISS LATENCY: 121.898 cycles
L1I TOTAL     ACCESS:    9723003  HIT:    9159130  MISS:     563873
L1I LOAD      ACCESS:    9416725  HIT:    9069245  MISS:     347480
L1I RFO       ACCESS:          0  HIT:          0  MISS:          0
L1I PREFETCH  ACCESS:     306278  HIT:      89885  MISS:     216393
L1I WRITEBACK ACCESS:          0  HIT:          0  MISS:          0
L1I PREFETCH  REQUESTED:    1441586  ISSUED:    1441586  USEFUL:     287688  USELESS:     242606
L1I AVERAGE MISS LATENCY: 19.8126 cycles
L2C TOTAL     ACCESS:    1643866  HIT:    1239110  MISS:     404756
L2C LOAD      ACCESS:     379258  HIT:     319255  MISS:      60003
L2C RFO       ACCESS:     232149  HIT:      25715  MISS:     206434
L2C PREFETCH  ACCESS:     763154  HIT:     625857  MISS:     137297
L2C WRITEBACK ACCESS:     269305  HIT:     268283  MISS:       1022
L2C PREFETCH  REQUESTED:    1993960  ISSUED:    1993344  USEFUL:      32149  USELESS:     206074
L2C AVERAGE MISS LATENCY: 162.318 cycles
LLC TOTAL     ACCESS:     920218  HIT:     633321  MISS:     286897
LLC LOAD      ACCESS:      59902  HIT:      44991  MISS:      14911
LLC RFO       ACCESS:     206423  HIT:      34890  MISS:     171533
LLC PREFETCH  ACCESS:     429744  HIT:     329670  MISS:     100074
LLC WRITEBACK ACCESS:     224149  HIT:     223770  MISS:        379
LLC PREFETCH  REQUESTED:          0  ISSUED:          0  USEFUL:      27353  USELESS:     117540
LLC AVERAGE MISS LATENCY: 225.888 cycles
Major fault: 0 Minor fault: 5045
CPU 0 L1D next line prefetcher final stats

DRAM Statistics
 CHANNEL 0
 RQ ROW_BUFFER_HIT:      99968  ROW_BUFFER_MISS:     186544
 DBUS_CONGESTED:     258858
 WQ ROW_BUFFER_HIT:      60159  ROW_BUFFER_MISS:     119269  FULL:          0

 AVG_CONGESTED_CYCLE: 6

CPU 0 Branch Prediction Accuracy: 98.6631% MPKI: 2.66884 Average ROB Occupancy at Mispredict: 63.6789

Branch types
NOT_BRANCH: 40018761 80.0375%
BRANCH_DIRECT_JUMP: 370861 0.741722%
BRANCH_INDIRECT: 83252 0.166504%
BRANCH_CONDITIONAL: 7877434 15.7549%
BRANCH_DIRECT_CALL: 722314 1.44463%
BRANCH_INDIRECT_CALL: 101901 0.203802%
BRANCH_RETURN: 825355 1.65071%
BRANCH_OTHER: 0 0%

