Initialize SIGNATURE TABLE
ST_SET: 1
ST_WAY: 256
ST_TAG_BIT: 16
ST_TAG_MASK: ffff

Initialize PATTERN TABLE
PT_SET: 512
PT_WAY: 4
SIG_DELTA_BIT: 7
C_SIG_BIT: 4
C_DELTA_BIT: 4

Initialize PREFETCH FILTER
FILTER_SET: 1024

*** ChampSim Multicore Out-of-Order Simulator ***

Warmup Instructions: 50000000
Simulation Instructions: 50000000
Number of CPUs: 1
LLC sets: 2048
LLC ways: 16
Off-chip DRAM Size: 4096 MB Channels: 1 Width: 64-bit Data Rate: 3200 MT/s

CPU 0 runs /u/j/t/jtong/ChampSim/ipc1_public/client_008.champsimtrace.xz
CPU 0 L1D next line prefetcher
Heartbeat CPU 0 instructions: 10000001 cycles: 3752404 heartbeat IPC: 2.66496 cumulative IPC: 2.66496 (Simulation time: 0 hr 0 min 28 sec) 
Heartbeat CPU 0 instructions: 20000001 cycles: 7526644 heartbeat IPC: 2.64954 cumulative IPC: 2.65723 (Simulation time: 0 hr 1 min 1 sec) 
Heartbeat CPU 0 instructions: 30000000 cycles: 11251600 heartbeat IPC: 2.6846 cumulative IPC: 2.66629 (Simulation time: 0 hr 1 min 28 sec) 
Heartbeat CPU 0 instructions: 40000002 cycles: 15043569 heartbeat IPC: 2.63715 cumulative IPC: 2.65894 (Simulation time: 0 hr 1 min 57 sec) 
Heartbeat CPU 0 instructions: 50000003 cycles: 18832743 heartbeat IPC: 2.6391 cumulative IPC: 2.65495 (Simulation time: 0 hr 2 min 24 sec) 

Warmup complete CPU 0 instructions: 50000003 cycles: 18832743 (Simulation time: 0 hr 2 min 24 sec) 

Heartbeat CPU 0 instructions: 60000000 cycles: 27622600 heartbeat IPC: 1.13767 cumulative IPC: 1.13767 (Simulation time: 0 hr 2 min 52 sec) 
Heartbeat CPU 0 instructions: 70000000 cycles: 36212643 heartbeat IPC: 1.16414 cumulative IPC: 1.15075 (Simulation time: 0 hr 3 min 20 sec) 
Heartbeat CPU 0 instructions: 80000001 cycles: 45325964 heartbeat IPC: 1.09729 cumulative IPC: 1.13237 (Simulation time: 0 hr 3 min 45 sec) 
Heartbeat CPU 0 instructions: 90000001 cycles: 52718608 heartbeat IPC: 1.3527 cumulative IPC: 1.18043 (Simulation time: 0 hr 4 min 8 sec) 
Heartbeat CPU 0 instructions: 100000001 cycles: 60768899 heartbeat IPC: 1.24219 cumulative IPC: 1.19229 (Simulation time: 0 hr 4 min 27 sec) 
Finished CPU 0 instructions: 50000002 cycles: 41936157 cumulative IPC: 1.19229 (Simulation time: 0 hr 4 min 27 sec) 

ChampSim completed all CPUs

Region of Interest Statistics

CPU 0 cumulative IPC: 1.19229 instructions: 50000002 cycles: 41936157
L1D TOTAL     ACCESS:   20775002  HIT:   19145292  MISS:    1629710
L1D LOAD      ACCESS:    8199302  HIT:    7403843  MISS:     795459
L1D RFO       ACCESS:    4826843  HIT:    4718320  MISS:     108523
L1D PREFETCH  ACCESS:    7748857  HIT:    7023129  MISS:     725728
L1D WRITEBACK ACCESS:          0  HIT:          0  MISS:          0
L1D PREFETCH  REQUESTED:   21050075  ISSUED:   20477820  USEFUL:     565000  USELESS:    1353832
L1D AVERAGE MISS LATENCY: 32.4324 cycles
L1I TOTAL     ACCESS:   10090939  HIT:    9100289  MISS:     990650
L1I LOAD      ACCESS:    9599657  HIT:    9031514  MISS:     568143
L1I RFO       ACCESS:          0  HIT:          0  MISS:          0
L1I PREFETCH  ACCESS:     491282  HIT:      68775  MISS:     422507
L1I WRITEBACK ACCESS:          0  HIT:          0  MISS:          0
L1I PREFETCH  REQUESTED:    3453333  ISSUED:    3453333  USEFUL:     691442  USELESS:     733583
L1I AVERAGE MISS LATENCY: 15.6543 cycles
L2C TOTAL     ACCESS:    3825802  HIT:    3361303  MISS:     464499
L2C LOAD      ACCESS:    1208300  HIT:    1028720  MISS:     179580
L2C RFO       ACCESS:     103318  HIT:      18232  MISS:      85086
L2C PREFETCH  ACCESS:    2332183  HIT:    2132799  MISS:     199384
L2C WRITEBACK ACCESS:     182001  HIT:     181552  MISS:        449
L2C PREFETCH  REQUESTED:    7578533  ISSUED:    7577074  USEFUL:      50735  USELESS:     451390
L2C AVERAGE MISS LATENCY: 74.41 cycles
LLC TOTAL     ACCESS:    1340751  HIT:    1158343  MISS:     182408
LLC LOAD      ACCESS:     179484  HIT:     157441  MISS:      22043
LLC RFO       ACCESS:      85078  HIT:      17334  MISS:      67744
LLC PREFETCH  ACCESS:     940528  HIT:     848303  MISS:      92225
LLC WRITEBACK ACCESS:     135661  HIT:     135265  MISS:        396
LLC PREFETCH  REQUESTED:          0  ISSUED:          0  USEFUL:      42132  USELESS:     132936
LLC AVERAGE MISS LATENCY: 165.864 cycles
Major fault: 0 Minor fault: 5305
CPU 0 L1D next line prefetcher final stats

DRAM Statistics
 CHANNEL 0
 RQ ROW_BUFFER_HIT:      53061  ROW_BUFFER_MISS:     128934
 DBUS_CONGESTED:     100796
 WQ ROW_BUFFER_HIT:      23437  ROW_BUFFER_MISS:      66409  FULL:          0

 AVG_CONGESTED_CYCLE: 6

CPU 0 Branch Prediction Accuracy: 98.6482% MPKI: 3.15508 Average ROB Occupancy at Mispredict: 88.1712

Branch types
NOT_BRANCH: 38329465 76.6589%
BRANCH_DIRECT_JUMP: 510116 1.02023%
BRANCH_INDIRECT: 225730 0.45146%
BRANCH_CONDITIONAL: 8366711 16.7334%
BRANCH_DIRECT_CALL: 600746 1.20149%
BRANCH_INDIRECT_CALL: 682990 1.36598%
BRANCH_RETURN: 1283971 2.56794%
BRANCH_OTHER: 0 0%

