Initialize SIGNATURE TABLE
ST_SET: 1
ST_WAY: 256
ST_TAG_BIT: 16
ST_TAG_MASK: ffff

Initialize PATTERN TABLE
PT_SET: 512
PT_WAY: 4
SIG_DELTA_BIT: 7
C_SIG_BIT: 4
C_DELTA_BIT: 4

Initialize PREFETCH FILTER
FILTER_SET: 1024

*** ChampSim Multicore Out-of-Order Simulator ***

Warmup Instructions: 50000000
Simulation Instructions: 50000000
Number of CPUs: 1
LLC sets: 2048
LLC ways: 16
Off-chip DRAM Size: 4096 MB Channels: 1 Width: 64-bit Data Rate: 3200 MT/s

CPU 0 runs /u/j/t/jtong/ChampSim/ipc1_public/client_007.champsimtrace.xz
CPU 0 L1D next line prefetcher
Heartbeat CPU 0 instructions: 10000001 cycles: 3641863 heartbeat IPC: 2.74585 cumulative IPC: 2.74585 (Simulation time: 0 hr 0 min 24 sec) 
Heartbeat CPU 0 instructions: 20000003 cycles: 7033738 heartbeat IPC: 2.94822 cumulative IPC: 2.84344 (Simulation time: 0 hr 0 min 53 sec) 
Heartbeat CPU 0 instructions: 30000000 cycles: 10905634 heartbeat IPC: 2.58271 cumulative IPC: 2.75087 (Simulation time: 0 hr 1 min 19 sec) 
Heartbeat CPU 0 instructions: 40000003 cycles: 15065593 heartbeat IPC: 2.40387 cumulative IPC: 2.65506 (Simulation time: 0 hr 1 min 48 sec) 
Heartbeat CPU 0 instructions: 50000002 cycles: 18470328 heartbeat IPC: 2.93709 cumulative IPC: 2.70704 (Simulation time: 0 hr 2 min 11 sec) 

Warmup complete CPU 0 instructions: 50000002 cycles: 18470328 (Simulation time: 0 hr 2 min 11 sec) 

Heartbeat CPU 0 instructions: 60000003 cycles: 26386679 heartbeat IPC: 1.26321 cumulative IPC: 1.26321 (Simulation time: 0 hr 2 min 36 sec) 
Heartbeat CPU 0 instructions: 70000003 cycles: 35379876 heartbeat IPC: 1.11195 cumulative IPC: 1.18276 (Simulation time: 0 hr 3 min 5 sec) 
Heartbeat CPU 0 instructions: 80000002 cycles: 41258421 heartbeat IPC: 1.7011 cumulative IPC: 1.31648 (Simulation time: 0 hr 3 min 23 sec) 
Heartbeat CPU 0 instructions: 90000002 cycles: 50123281 heartbeat IPC: 1.12805 cumulative IPC: 1.26371 (Simulation time: 0 hr 3 min 47 sec) 
Heartbeat CPU 0 instructions: 100000000 cycles: 59193283 heartbeat IPC: 1.10254 cumulative IPC: 1.22781 (Simulation time: 0 hr 4 min 10 sec) 
Finished CPU 0 instructions: 50000002 cycles: 40722956 cumulative IPC: 1.22781 (Simulation time: 0 hr 4 min 10 sec) 

ChampSim completed all CPUs

Region of Interest Statistics

CPU 0 cumulative IPC: 1.22781 instructions: 50000002 cycles: 40722956
L1D TOTAL     ACCESS:   21736467  HIT:   20565953  MISS:    1170514
L1D LOAD      ACCESS:    8615591  HIT:    8085215  MISS:     530376
L1D RFO       ACCESS:    4904877  HIT:    4813625  MISS:      91252
L1D PREFETCH  ACCESS:    8215999  HIT:    7667113  MISS:     548886
L1D WRITEBACK ACCESS:          0  HIT:          0  MISS:          0
L1D PREFETCH  REQUESTED:   20915590  ISSUED:   20386626  USEFUL:     379721  USELESS:     858034
L1D AVERAGE MISS LATENCY: 34.2115 cycles
L1I TOTAL     ACCESS:    9475362  HIT:    8394297  MISS:    1081065
L1I LOAD      ACCESS:    8925552  HIT:    8314904  MISS:     610648
L1I RFO       ACCESS:          0  HIT:          0  MISS:          0
L1I PREFETCH  ACCESS:     549810  HIT:      79393  MISS:     470417
L1I WRITEBACK ACCESS:          0  HIT:          0  MISS:          0
L1I PREFETCH  REQUESTED:    2403229  ISSUED:    2403229  USEFUL:     515115  USELESS:     452039
L1I AVERAGE MISS LATENCY: 13.7798 cycles
L2C TOTAL     ACCESS:    3481536  HIT:    3262668  MISS:     218868
L2C LOAD      ACCESS:     983868  HIT:     906357  MISS:      77511
L2C RFO       ACCESS:      89380  HIT:      47908  MISS:      41472
L2C PREFETCH  ACCESS:    2080194  HIT:    1980468  MISS:      99726
L2C WRITEBACK ACCESS:     328094  HIT:     327935  MISS:        159
L2C PREFETCH  REQUESTED:    4961630  ISSUED:    4955168  USEFUL:      25534  USELESS:     185758
L2C AVERAGE MISS LATENCY: 117.26 cycles
LLC TOTAL     ACCESS:     895768  HIT:     726457  MISS:     169311
LLC LOAD      ACCESS:      77429  HIT:      41965  MISS:      35464
LLC RFO       ACCESS:      41472  HIT:       7210  MISS:      34262
LLC PREFETCH  ACCESS:     701892  HIT:     602603  MISS:      99289
LLC WRITEBACK ACCESS:      74975  HIT:      74679  MISS:        296
LLC PREFETCH  REQUESTED:          0  ISSUED:          0  USEFUL:      37552  USELESS:     123975
LLC AVERAGE MISS LATENCY: 178.141 cycles
Major fault: 0 Minor fault: 4410
CPU 0 L1D next line prefetcher final stats

DRAM Statistics
 CHANNEL 0
 RQ ROW_BUFFER_HIT:      35569  ROW_BUFFER_MISS:     133433
 DBUS_CONGESTED:      96577
 WQ ROW_BUFFER_HIT:      13039  ROW_BUFFER_MISS:      45321  FULL:          0

 AVG_CONGESTED_CYCLE: 5

CPU 0 Branch Prediction Accuracy: 98.8607% MPKI: 1.8623 Average ROB Occupancy at Mispredict: 102.576

Branch types
NOT_BRANCH: 41826773 83.6535%
BRANCH_DIRECT_JUMP: 735330 1.47066%
BRANCH_INDIRECT: 269194 0.538388%
BRANCH_CONDITIONAL: 5957947 11.9159%
BRANCH_DIRECT_CALL: 368758 0.737516%
BRANCH_INDIRECT_CALL: 226975 0.45395%
BRANCH_RETURN: 614696 1.22939%
BRANCH_OTHER: 0 0%

