Initialize SIGNATURE TABLE
ST_SET: 1
ST_WAY: 256
ST_TAG_BIT: 16
ST_TAG_MASK: ffff

Initialize PATTERN TABLE
PT_SET: 512
PT_WAY: 4
SIG_DELTA_BIT: 7
C_SIG_BIT: 4
C_DELTA_BIT: 4

Initialize PREFETCH FILTER
FILTER_SET: 1024

*** ChampSim Multicore Out-of-Order Simulator ***

Warmup Instructions: 50000000
Simulation Instructions: 50000000
Number of CPUs: 1
LLC sets: 2048
LLC ways: 16
Off-chip DRAM Size: 4096 MB Channels: 1 Width: 64-bit Data Rate: 3200 MT/s

CPU 0 runs /u/j/t/jtong/ChampSim/ipc1_public/client_004.champsimtrace.xz
CPU 0 L1D next line prefetcher
Heartbeat CPU 0 instructions: 10000000 cycles: 3592433 heartbeat IPC: 2.78363 cumulative IPC: 2.78363 (Simulation time: 0 hr 0 min 27 sec) 
Heartbeat CPU 0 instructions: 20000003 cycles: 7056841 heartbeat IPC: 2.8865 cumulative IPC: 2.83413 (Simulation time: 0 hr 0 min 56 sec) 
Heartbeat CPU 0 instructions: 30000000 cycles: 10647200 heartbeat IPC: 2.78524 cumulative IPC: 2.81764 (Simulation time: 0 hr 1 min 21 sec) 
Heartbeat CPU 0 instructions: 40000003 cycles: 14327581 heartbeat IPC: 2.71711 cumulative IPC: 2.79182 (Simulation time: 0 hr 1 min 46 sec) 
Heartbeat CPU 0 instructions: 50000001 cycles: 17845727 heartbeat IPC: 2.84241 cumulative IPC: 2.80179 (Simulation time: 0 hr 2 min 11 sec) 

Warmup complete CPU 0 instructions: 50000001 cycles: 17845727 (Simulation time: 0 hr 2 min 11 sec) 

Heartbeat CPU 0 instructions: 60000002 cycles: 26340010 heartbeat IPC: 1.17726 cumulative IPC: 1.17726 (Simulation time: 0 hr 2 min 31 sec) 
Heartbeat CPU 0 instructions: 70000001 cycles: 34649552 heartbeat IPC: 1.20344 cumulative IPC: 1.19021 (Simulation time: 0 hr 2 min 54 sec) 
Heartbeat CPU 0 instructions: 80000002 cycles: 44011816 heartbeat IPC: 1.06812 cumulative IPC: 1.14652 (Simulation time: 0 hr 3 min 16 sec) 
Heartbeat CPU 0 instructions: 90000000 cycles: 52561316 heartbeat IPC: 1.16966 cumulative IPC: 1.15222 (Simulation time: 0 hr 3 min 39 sec) 
Heartbeat CPU 0 instructions: 100000002 cycles: 61089543 heartbeat IPC: 1.17258 cumulative IPC: 1.15623 (Simulation time: 0 hr 4 min 4 sec) 
Finished CPU 0 instructions: 50000001 cycles: 43243816 cumulative IPC: 1.15623 (Simulation time: 0 hr 4 min 4 sec) 

ChampSim completed all CPUs

Region of Interest Statistics

CPU 0 cumulative IPC: 1.15623 instructions: 50000001 cycles: 43243816
L1D TOTAL     ACCESS:   22267703  HIT:   21378509  MISS:     889194
L1D LOAD      ACCESS:    8861379  HIT:    8466986  MISS:     394393
L1D RFO       ACCESS:    4833529  HIT:    4712299  MISS:     121230
L1D PREFETCH  ACCESS:    8572795  HIT:    8199224  MISS:     373571
L1D WRITEBACK ACCESS:          0  HIT:          0  MISS:          0
L1D PREFETCH  REQUESTED:   19961792  ISSUED:   19525031  USEFUL:     248981  USELESS:     442763
L1D AVERAGE MISS LATENCY: 29.4399 cycles
L1I TOTAL     ACCESS:    9720075  HIT:    9049490  MISS:     670585
L1I LOAD      ACCESS:    9378749  HIT:    8978092  MISS:     400657
L1I RFO       ACCESS:          0  HIT:          0  MISS:          0
L1I PREFETCH  ACCESS:     341326  HIT:      71398  MISS:     269928
L1I WRITEBACK ACCESS:          0  HIT:          0  MISS:          0
L1I PREFETCH  REQUESTED:    1475645  ISSUED:    1475645  USEFUL:     307661  USELESS:     265996
L1I AVERAGE MISS LATENCY: 24.393 cycles
L2C TOTAL     ACCESS:    2403488  HIT:    2100883  MISS:     302605
L2C LOAD      ACCESS:     695779  HIT:     600371  MISS:      95408
L2C RFO       ACCESS:     117252  HIT:      45104  MISS:      72148
L2C PREFETCH  ACCESS:    1368369  HIT:    1234090  MISS:     134279
L2C WRITEBACK ACCESS:     222088  HIT:     221318  MISS:        770
L2C PREFETCH  REQUESTED:    2693733  ISSUED:    2692949  USEFUL:      54182  USELESS:     272440
L2C AVERAGE MISS LATENCY: 79.4007 cycles
LLC TOTAL     ACCESS:     653325  HIT:     519855  MISS:     133470
LLC LOAD      ACCESS:      95394  HIT:      72813  MISS:      22581
LLC RFO       ACCESS:      72146  HIT:      41629  MISS:      30517
LLC PREFETCH  ACCESS:     384590  HIT:     304453  MISS:      80137
LLC WRITEBACK ACCESS:     101195  HIT:     100960  MISS:        235
LLC PREFETCH  REQUESTED:          0  ISSUED:          0  USEFUL:      43061  USELESS:     121429
LLC AVERAGE MISS LATENCY: 170.223 cycles
Major fault: 0 Minor fault: 3979
CPU 0 L1D next line prefetcher final stats

DRAM Statistics
 CHANNEL 0
 RQ ROW_BUFFER_HIT:      33190  ROW_BUFFER_MISS:     100030
 DBUS_CONGESTED:      66342
 WQ ROW_BUFFER_HIT:       9371  ROW_BUFFER_MISS:      35120  FULL:          0

 AVG_CONGESTED_CYCLE: 6

CPU 0 Branch Prediction Accuracy: 94.1242% MPKI: 11.6089 Average ROB Occupancy at Mispredict: 48.5212

Branch types
NOT_BRANCH: 40121072 80.2421%
BRANCH_DIRECT_JUMP: 644555 1.28911%
BRANCH_INDIRECT: 201946 0.403892%
BRANCH_CONDITIONAL: 7003556 14.0071%
BRANCH_DIRECT_CALL: 564821 1.12964%
BRANCH_INDIRECT_CALL: 445012 0.890024%
BRANCH_RETURN: 1018716 2.03743%
BRANCH_OTHER: 0 0%

