Initialize SIGNATURE TABLE
ST_SET: 1
ST_WAY: 256
ST_TAG_BIT: 16
ST_TAG_MASK: ffff

Initialize PATTERN TABLE
PT_SET: 512
PT_WAY: 4
SIG_DELTA_BIT: 7
C_SIG_BIT: 4
C_DELTA_BIT: 4

Initialize PREFETCH FILTER
FILTER_SET: 1024

*** ChampSim Multicore Out-of-Order Simulator ***

Warmup Instructions: 50000000
Simulation Instructions: 50000000
Number of CPUs: 1
LLC sets: 2048
LLC ways: 16
Off-chip DRAM Size: 4096 MB Channels: 1 Width: 64-bit Data Rate: 3200 MT/s

CPU 0 runs /u/j/t/jtong/ChampSim/ipc1_public/server_034.champsimtrace.xz
CPU 0 L1D next line prefetcher
Heartbeat CPU 0 instructions: 10000000 cycles: 3332804 heartbeat IPC: 3.00048 cumulative IPC: 3.00048 (Simulation time: 0 hr 0 min 26 sec) 
Heartbeat CPU 0 instructions: 20000002 cycles: 6658453 heartbeat IPC: 3.00693 cumulative IPC: 3.0037 (Simulation time: 0 hr 0 min 52 sec) 
Heartbeat CPU 0 instructions: 30000003 cycles: 9992632 heartbeat IPC: 2.99924 cumulative IPC: 3.00221 (Simulation time: 0 hr 1 min 18 sec) 
Heartbeat CPU 0 instructions: 40000001 cycles: 13324584 heartbeat IPC: 3.00124 cumulative IPC: 3.00197 (Simulation time: 0 hr 1 min 44 sec) 
Heartbeat CPU 0 instructions: 50000000 cycles: 16655642 heartbeat IPC: 3.00205 cumulative IPC: 3.00199 (Simulation time: 0 hr 2 min 10 sec) 

Warmup complete CPU 0 instructions: 50000002 cycles: 16655643 (Simulation time: 0 hr 2 min 10 sec) 

Heartbeat CPU 0 instructions: 60000002 cycles: 24858394 heartbeat IPC: 1.2191 cumulative IPC: 1.2191 (Simulation time: 0 hr 2 min 32 sec) 
Heartbeat CPU 0 instructions: 70000003 cycles: 33319455 heartbeat IPC: 1.18189 cumulative IPC: 1.20021 (Simulation time: 0 hr 2 min 54 sec) 
Heartbeat CPU 0 instructions: 80000001 cycles: 41496461 heartbeat IPC: 1.22294 cumulative IPC: 1.20769 (Simulation time: 0 hr 3 min 15 sec) 
Heartbeat CPU 0 instructions: 90000002 cycles: 49671272 heartbeat IPC: 1.22327 cumulative IPC: 1.21155 (Simulation time: 0 hr 3 min 36 sec) 
Heartbeat CPU 0 instructions: 100000002 cycles: 57900832 heartbeat IPC: 1.21513 cumulative IPC: 1.21226 (Simulation time: 0 hr 3 min 57 sec) 
Finished CPU 0 instructions: 50000000 cycles: 41245189 cumulative IPC: 1.21226 (Simulation time: 0 hr 3 min 57 sec) 

ChampSim completed all CPUs

Region of Interest Statistics

CPU 0 cumulative IPC: 1.21226 instructions: 50000000 cycles: 41245189
L1D TOTAL     ACCESS:   20313310  HIT:   18888249  MISS:    1425061
L1D LOAD      ACCESS:    7117325  HIT:    6466322  MISS:     651003
L1D RFO       ACCESS:    6226149  HIT:    6082006  MISS:     144143
L1D PREFETCH  ACCESS:    6969836  HIT:    6339921  MISS:     629915
L1D WRITEBACK ACCESS:          0  HIT:          0  MISS:          0
L1D PREFETCH  REQUESTED:   15764869  ISSUED:   15547200  USEFUL:     293846  USELESS:     968191
L1D AVERAGE MISS LATENCY: 17.9006 cycles
L1I TOTAL     ACCESS:   11266489  HIT:    7109659  MISS:    4156830
L1I LOAD      ACCESS:    9180535  HIT:    6727428  MISS:    2453107
L1I RFO       ACCESS:          0  HIT:          0  MISS:          0
L1I PREFETCH  ACCESS:    2085954  HIT:     382231  MISS:    1703723
L1I WRITEBACK ACCESS:          0  HIT:          0  MISS:          0
L1I PREFETCH  REQUESTED:    8919868  ISSUED:    8919868  USEFUL:    1813086  USELESS:    1569177
L1I AVERAGE MISS LATENCY: 12.8648 cycles
L2C TOTAL     ACCESS:    8053393  HIT:    7904516  MISS:     148877
L2C LOAD      ACCESS:    2621053  HIT:    2556787  MISS:      64266
L2C RFO       ACCESS:     142449  HIT:     132508  MISS:       9941
L2C PREFETCH  ACCESS:    4938647  HIT:    4867140  MISS:      71507
L2C WRITEBACK ACCESS:     351244  HIT:     348081  MISS:       3163
L2C PREFETCH  REQUESTED:   11412544  ISSUED:   11380018  USEFUL:      11461  USELESS:     139804
L2C AVERAGE MISS LATENCY: 38.5875 cycles
LLC TOTAL     ACCESS:    1732959  HIT:    1716887  MISS:      16072
LLC LOAD      ACCESS:      63826  HIT:      60471  MISS:       3355
LLC RFO       ACCESS:       9941  HIT:       9691  MISS:        250
LLC PREFETCH  ACCESS:    1611566  HIT:    1599175  MISS:      12391
LLC WRITEBACK ACCESS:      47626  HIT:      47550  MISS:         76
LLC PREFETCH  REQUESTED:          0  ISSUED:          0  USEFUL:       8644  USELESS:       7141
LLC AVERAGE MISS LATENCY: 155.212 cycles
Major fault: 0 Minor fault: 1173
CPU 0 L1D next line prefetcher final stats

DRAM Statistics
 CHANNEL 0
 RQ ROW_BUFFER_HIT:       3687  ROW_BUFFER_MISS:      12306
 DBUS_CONGESTED:       7402
 WQ ROW_BUFFER_HIT:       1446  ROW_BUFFER_MISS:       3519  FULL:          0

 AVG_CONGESTED_CYCLE: 5

CPU 0 Branch Prediction Accuracy: 99.926% MPKI: 0.14472 Average ROB Occupancy at Mispredict: 156.468

Branch types
NOT_BRANCH: 40220846 80.4417%
BRANCH_DIRECT_JUMP: 771318 1.54264%
BRANCH_INDIRECT: 108662 0.217324%
BRANCH_CONDITIONAL: 6375020 12.75%
BRANCH_DIRECT_CALL: 1049630 2.09926%
BRANCH_INDIRECT_CALL: 212280 0.42456%
BRANCH_RETURN: 1261922 2.52384%
BRANCH_OTHER: 0 0%

