Initialize SIGNATURE TABLE
ST_SET: 1
ST_WAY: 256
ST_TAG_BIT: 16
ST_TAG_MASK: ffff

Initialize PATTERN TABLE
PT_SET: 512
PT_WAY: 4
SIG_DELTA_BIT: 7
C_SIG_BIT: 4
C_DELTA_BIT: 4

Initialize PREFETCH FILTER
FILTER_SET: 1024

*** ChampSim Multicore Out-of-Order Simulator ***

Warmup Instructions: 50000000
Simulation Instructions: 50000000
Number of CPUs: 1
LLC sets: 2048
LLC ways: 16
Off-chip DRAM Size: 4096 MB Channels: 1 Width: 64-bit Data Rate: 3200 MT/s

CPU 0 runs /u/j/t/jtong/ChampSim/ipc1_public/server_036.champsimtrace.xz
CPU 0 L1D next line prefetcher
Heartbeat CPU 0 instructions: 10000000 cycles: 3459063 heartbeat IPC: 2.89096 cumulative IPC: 2.89096 (Simulation time: 0 hr 0 min 26 sec) 
Heartbeat CPU 0 instructions: 20000000 cycles: 6924972 heartbeat IPC: 2.88525 cumulative IPC: 2.8881 (Simulation time: 0 hr 0 min 52 sec) 
Heartbeat CPU 0 instructions: 30000003 cycles: 10433035 heartbeat IPC: 2.85058 cumulative IPC: 2.87548 (Simulation time: 0 hr 1 min 18 sec) 
Heartbeat CPU 0 instructions: 40000000 cycles: 13895572 heartbeat IPC: 2.88805 cumulative IPC: 2.87861 (Simulation time: 0 hr 1 min 45 sec) 
Heartbeat CPU 0 instructions: 50000002 cycles: 17357333 heartbeat IPC: 2.8887 cumulative IPC: 2.88063 (Simulation time: 0 hr 2 min 11 sec) 

Warmup complete CPU 0 instructions: 50000002 cycles: 17357333 (Simulation time: 0 hr 2 min 11 sec) 

Heartbeat CPU 0 instructions: 60000002 cycles: 26363155 heartbeat IPC: 1.11039 cumulative IPC: 1.11039 (Simulation time: 0 hr 2 min 30 sec) 
Heartbeat CPU 0 instructions: 70000001 cycles: 35319508 heartbeat IPC: 1.11653 cumulative IPC: 1.11345 (Simulation time: 0 hr 2 min 48 sec) 
Heartbeat CPU 0 instructions: 80000000 cycles: 44289537 heartbeat IPC: 1.11482 cumulative IPC: 1.11391 (Simulation time: 0 hr 3 min 7 sec) 
Heartbeat CPU 0 instructions: 90000002 cycles: 53236915 heartbeat IPC: 1.11765 cumulative IPC: 1.11484 (Simulation time: 0 hr 3 min 25 sec) 
Heartbeat CPU 0 instructions: 100000001 cycles: 62186264 heartbeat IPC: 1.1174 cumulative IPC: 1.11535 (Simulation time: 0 hr 3 min 44 sec) 
Finished CPU 0 instructions: 50000003 cycles: 44828932 cumulative IPC: 1.11535 (Simulation time: 0 hr 3 min 44 sec) 

ChampSim completed all CPUs

Region of Interest Statistics

CPU 0 cumulative IPC: 1.11535 instructions: 50000003 cycles: 44828932
L1D TOTAL     ACCESS:   23541148  HIT:   23479202  MISS:      61946
L1D LOAD      ACCESS:    8118893  HIT:    8083860  MISS:      35033
L1D RFO       ACCESS:    7430910  HIT:    7423641  MISS:       7269
L1D PREFETCH  ACCESS:    7991345  HIT:    7971701  MISS:      19644
L1D WRITEBACK ACCESS:          0  HIT:          0  MISS:          0
L1D PREFETCH  REQUESTED:   17364991  ISSUED:   17003501  USEFUL:      23144  USELESS:      35954
L1D AVERAGE MISS LATENCY: 17.3156 cycles
L1I TOTAL     ACCESS:   10964882  HIT:    6206975  MISS:    4757907
L1I LOAD      ACCESS:    8500167  HIT:    5718959  MISS:    2781208
L1I RFO       ACCESS:          0  HIT:          0  MISS:          0
L1I PREFETCH  ACCESS:    2464715  HIT:     488016  MISS:    1976699
L1I WRITEBACK ACCESS:          0  HIT:          0  MISS:          0
L1I PREFETCH  REQUESTED:   10148368  ISSUED:   10148368  USEFUL:    2359846  USELESS:    1548151
L1I AVERAGE MISS LATENCY: 12.7263 cycles
L2C TOTAL     ACCESS:    7254662  HIT:    7252384  MISS:       2278
L2C LOAD      ACCESS:    2327932  HIT:    2327360  MISS:        572
L2C RFO       ACCESS:       7261  HIT:       7204  MISS:         57
L2C PREFETCH  ACCESS:    4903821  HIT:    4902195  MISS:       1626
L2C WRITEBACK ACCESS:      15648  HIT:      15625  MISS:         23
L2C PREFETCH  REQUESTED:    9881525  ISSUED:    9881429  USEFUL:       2150  USELESS:      25462
L2C AVERAGE MISS LATENCY: 122.081 cycles
LLC TOTAL     ACCESS:     669426  HIT:     666834  MISS:       2592
LLC LOAD      ACCESS:        572  HIT:        208  MISS:        364
LLC RFO       ACCESS:         57  HIT:         28  MISS:         29
LLC PREFETCH  ACCESS:     667873  HIT:     665678  MISS:       2195
LLC WRITEBACK ACCESS:        924  HIT:        920  MISS:          4
LLC PREFETCH  REQUESTED:          0  ISSUED:          0  USEFUL:       7451  USELESS:      17416
LLC AVERAGE MISS LATENCY: 218.354 cycles
Major fault: 0 Minor fault: 1929
CPU 0 L1D next line prefetcher final stats

DRAM Statistics
 CHANNEL 0
 RQ ROW_BUFFER_HIT:        550  ROW_BUFFER_MISS:       2038
 DBUS_CONGESTED:       1515
 WQ ROW_BUFFER_HIT:        327  ROW_BUFFER_MISS:       1336  FULL:          0

 AVG_CONGESTED_CYCLE: 6

CPU 0 Branch Prediction Accuracy: 99.8717% MPKI: 0.21174 Average ROB Occupancy at Mispredict: 152.576

Branch types
NOT_BRANCH: 41748421 83.4968%
BRANCH_DIRECT_JUMP: 468563 0.937126%
BRANCH_INDIRECT: 0 0%
BRANCH_CONDITIONAL: 5599749 11.1995%
BRANCH_DIRECT_CALL: 885105 1.77021%
BRANCH_INDIRECT_CALL: 206338 0.412676%
BRANCH_RETURN: 1091467 2.18293%
BRANCH_OTHER: 0 0%

