Initialize SIGNATURE TABLE
ST_SET: 1
ST_WAY: 256
ST_TAG_BIT: 16
ST_TAG_MASK: ffff

Initialize PATTERN TABLE
PT_SET: 512
PT_WAY: 4
SIG_DELTA_BIT: 7
C_SIG_BIT: 4
C_DELTA_BIT: 4

Initialize PREFETCH FILTER
FILTER_SET: 1024

*** ChampSim Multicore Out-of-Order Simulator ***

Warmup Instructions: 50000000
Simulation Instructions: 50000000
Number of CPUs: 1
LLC sets: 2048
LLC ways: 16
Off-chip DRAM Size: 4096 MB Channels: 1 Width: 64-bit Data Rate: 3200 MT/s

CPU 0 runs /u/j/t/jtong/ChampSim/ipc1_public/server_021.champsimtrace.xz
CPU 0 L1D next line prefetcher
Heartbeat CPU 0 instructions: 10000000 cycles: 3625722 heartbeat IPC: 2.75807 cumulative IPC: 2.75807 (Simulation time: 0 hr 0 min 27 sec) 
Heartbeat CPU 0 instructions: 20000000 cycles: 7246166 heartbeat IPC: 2.76209 cumulative IPC: 2.76008 (Simulation time: 0 hr 0 min 54 sec) 
Heartbeat CPU 0 instructions: 30000003 cycles: 10897319 heartbeat IPC: 2.73886 cumulative IPC: 2.75297 (Simulation time: 0 hr 1 min 21 sec) 
Heartbeat CPU 0 instructions: 40000001 cycles: 14512813 heartbeat IPC: 2.76587 cumulative IPC: 2.75619 (Simulation time: 0 hr 1 min 48 sec) 
Heartbeat CPU 0 instructions: 50000002 cycles: 18149978 heartbeat IPC: 2.74939 cumulative IPC: 2.75482 (Simulation time: 0 hr 2 min 15 sec) 

Warmup complete CPU 0 instructions: 50000002 cycles: 18149978 (Simulation time: 0 hr 2 min 15 sec) 

Heartbeat CPU 0 instructions: 60000001 cycles: 35629726 heartbeat IPC: 0.572091 cumulative IPC: 0.572091 (Simulation time: 0 hr 2 min 50 sec) 
Heartbeat CPU 0 instructions: 70000002 cycles: 53222545 heartbeat IPC: 0.568414 cumulative IPC: 0.570246 (Simulation time: 0 hr 3 min 26 sec) 
Heartbeat CPU 0 instructions: 80000001 cycles: 70632196 heartbeat IPC: 0.574394 cumulative IPC: 0.571622 (Simulation time: 0 hr 4 min 0 sec) 
Heartbeat CPU 0 instructions: 90000001 cycles: 88296617 heartbeat IPC: 0.56611 cumulative IPC: 0.570234 (Simulation time: 0 hr 4 min 30 sec) 
Heartbeat CPU 0 instructions: 100000000 cycles: 105769757 heartbeat IPC: 0.572307 cumulative IPC: 0.570647 (Simulation time: 0 hr 4 min 58 sec) 
Finished CPU 0 instructions: 50000002 cycles: 87619780 cumulative IPC: 0.570647 (Simulation time: 0 hr 4 min 58 sec) 

ChampSim completed all CPUs

Region of Interest Statistics

CPU 0 cumulative IPC: 0.570647 instructions: 50000002 cycles: 87619780
L1D TOTAL     ACCESS:   19560911  HIT:   17357391  MISS:    2203520
L1D LOAD      ACCESS:    7470146  HIT:    6773988  MISS:     696158
L1D RFO       ACCESS:    5887319  HIT:    4911781  MISS:     975538
L1D PREFETCH  ACCESS:    6203446  HIT:    5671622  MISS:     531824
L1D WRITEBACK ACCESS:          0  HIT:          0  MISS:          0
L1D PREFETCH  REQUESTED:   16965019  ISSUED:   16571431  USEFUL:     630141  USELESS:     646231
L1D AVERAGE MISS LATENCY: 177.689 cycles
L1I TOTAL     ACCESS:   11369691  HIT:    8252647  MISS:    3117044
L1I LOAD      ACCESS:    9747753  HIT:    7867796  MISS:    1879957
L1I RFO       ACCESS:          0  HIT:          0  MISS:          0
L1I PREFETCH  ACCESS:    1621938  HIT:     384851  MISS:    1237087
L1I WRITEBACK ACCESS:          0  HIT:          0  MISS:          0
L1I PREFETCH  REQUESTED:    6941062  ISSUED:    6941062  USEFUL:    1419962  USELESS:    1064155
L1I AVERAGE MISS LATENCY: 14.9599 cycles
L2C TOTAL     ACCESS:    8051786  HIT:    6155572  MISS:    1896214
L2C LOAD      ACCESS:    1939843  HIT:    1627185  MISS:     312658
L2C RFO       ACCESS:     975098  HIT:      19437  MISS:     955661
L2C PREFETCH  ACCESS:    3956910  HIT:    3331866  MISS:     625044
L2C WRITEBACK ACCESS:    1179935  HIT:    1177084  MISS:       2851
L2C PREFETCH  REQUESTED:   10423011  ISSUED:   10407684  USEFUL:      68479  USELESS:    1171990
L2C AVERAGE MISS LATENCY: 210.634 cycles
LLC TOTAL     ACCESS:    4072884  HIT:    2655100  MISS:    1417784
LLC LOAD      ACCESS:     312576  HIT:     227511  MISS:      85065
LLC RFO       ACCESS:     955610  HIT:     142002  MISS:     813608
LLC PREFETCH  ACCESS:    1689827  HIT:    1172908  MISS:     516919
LLC WRITEBACK ACCESS:    1114871  HIT:    1112679  MISS:       2192
LLC PREFETCH  REQUESTED:          0  ISSUED:          0  USEFUL:      66185  USELESS:     947316
LLC AVERAGE MISS LATENCY: 286.2 cycles
Major fault: 0 Minor fault: 22292
CPU 0 L1D next line prefetcher final stats

DRAM Statistics
 CHANNEL 0
 RQ ROW_BUFFER_HIT:     412751  ROW_BUFFER_MISS:    1002613
 DBUS_CONGESTED:    1459020
 WQ ROW_BUFFER_HIT:     248057  ROW_BUFFER_MISS:     655436  FULL:          0

 AVG_CONGESTED_CYCLE: 6

CPU 0 Branch Prediction Accuracy: 99.8303% MPKI: 0.27836 Average ROB Occupancy at Mispredict: 186.461

Branch types
NOT_BRANCH: 41798544 83.5971%
BRANCH_DIRECT_JUMP: 445215 0.89043%
BRANCH_INDIRECT: 50481 0.100962%
BRANCH_CONDITIONAL: 5868243 11.7365%
BRANCH_DIRECT_CALL: 758228 1.51646%
BRANCH_INDIRECT_CALL: 160494 0.320988%
BRANCH_RETURN: 918718 1.83744%
BRANCH_OTHER: 0 0%

