Initialize SIGNATURE TABLE
ST_SET: 1
ST_WAY: 256
ST_TAG_BIT: 16
ST_TAG_MASK: ffff

Initialize PATTERN TABLE
PT_SET: 512
PT_WAY: 4
SIG_DELTA_BIT: 7
C_SIG_BIT: 4
C_DELTA_BIT: 4

Initialize PREFETCH FILTER
FILTER_SET: 1024

*** ChampSim Multicore Out-of-Order Simulator ***

Warmup Instructions: 50000000
Simulation Instructions: 50000000
Number of CPUs: 1
LLC sets: 2048
LLC ways: 16
Off-chip DRAM Size: 4096 MB Channels: 1 Width: 64-bit Data Rate: 3200 MT/s

CPU 0 runs /u/j/t/jtong/ChampSim/ipc1_public/server_015.champsimtrace.xz
CPU 0 L1D next line prefetcher
Heartbeat CPU 0 instructions: 10000002 cycles: 3519369 heartbeat IPC: 2.84142 cumulative IPC: 2.84142 (Simulation time: 0 hr 0 min 26 sec) 
Heartbeat CPU 0 instructions: 20000001 cycles: 7106836 heartbeat IPC: 2.78748 cumulative IPC: 2.81419 (Simulation time: 0 hr 0 min 51 sec) 
Heartbeat CPU 0 instructions: 30000001 cycles: 10645771 heartbeat IPC: 2.82571 cumulative IPC: 2.81802 (Simulation time: 0 hr 1 min 17 sec) 
Heartbeat CPU 0 instructions: 40000002 cycles: 14193812 heartbeat IPC: 2.81846 cumulative IPC: 2.81813 (Simulation time: 0 hr 1 min 57 sec) 
Heartbeat CPU 0 instructions: 50000002 cycles: 17742072 heartbeat IPC: 2.81828 cumulative IPC: 2.81816 (Simulation time: 0 hr 2 min 58 sec) 

Warmup complete CPU 0 instructions: 50000002 cycles: 17742072 (Simulation time: 0 hr 2 min 58 sec) 

Heartbeat CPU 0 instructions: 60000002 cycles: 25614770 heartbeat IPC: 1.27021 cumulative IPC: 1.27021 (Simulation time: 0 hr 3 min 45 sec) 
Heartbeat CPU 0 instructions: 70000003 cycles: 33474156 heartbeat IPC: 1.27236 cumulative IPC: 1.27129 (Simulation time: 0 hr 4 min 27 sec) 
Heartbeat CPU 0 instructions: 80000000 cycles: 41331974 heartbeat IPC: 1.27262 cumulative IPC: 1.27173 (Simulation time: 0 hr 5 min 13 sec) 
Heartbeat CPU 0 instructions: 90000000 cycles: 49193136 heartbeat IPC: 1.27208 cumulative IPC: 1.27182 (Simulation time: 0 hr 5 min 51 sec) 
Heartbeat CPU 0 instructions: 100000000 cycles: 57052566 heartbeat IPC: 1.27236 cumulative IPC: 1.27192 (Simulation time: 0 hr 6 min 29 sec) 
Finished CPU 0 instructions: 50000002 cycles: 39310495 cumulative IPC: 1.27192 (Simulation time: 0 hr 6 min 29 sec) 

ChampSim completed all CPUs

Region of Interest Statistics

CPU 0 cumulative IPC: 1.27192 instructions: 50000002 cycles: 39310495
L1D TOTAL     ACCESS:   23449459  HIT:   23431580  MISS:      17879
L1D LOAD      ACCESS:    7474072  HIT:    7473543  MISS:        529
L1D RFO       ACCESS:    8601179  HIT:    8601080  MISS:         99
L1D PREFETCH  ACCESS:    7374208  HIT:    7356957  MISS:      17251
L1D WRITEBACK ACCESS:          0  HIT:          0  MISS:          0
L1D PREFETCH  REQUESTED:   16560918  ISSUED:   16322736  USEFUL:      13431  USELESS:      25128
L1D AVERAGE MISS LATENCY: 16.0346 cycles
L1I TOTAL     ACCESS:   10917758  HIT:    8072718  MISS:    2845040
L1I LOAD      ACCESS:    9298814  HIT:    7492237  MISS:    1806577
L1I RFO       ACCESS:          0  HIT:          0  MISS:          0
L1I PREFETCH  ACCESS:    1618944  HIT:     580481  MISS:    1038463
L1I WRITEBACK ACCESS:          0  HIT:          0  MISS:          0
L1I PREFETCH  REQUESTED:    6197761  ISSUED:    6197761  USEFUL:    1094915  USELESS:     938187
L1I AVERAGE MISS LATENCY: 12.8361 cycles
L2C TOTAL     ACCESS:    4053258  HIT:    4052968  MISS:        290
L2C LOAD      ACCESS:    1511069  HIT:    1510983  MISS:         86
L2C RFO       ACCESS:         95  HIT:         93  MISS:          2
L2C PREFETCH  ACCESS:    2541743  HIT:    2541542  MISS:        201
L2C WRITEBACK ACCESS:        351  HIT:        350  MISS:          1
L2C PREFETCH  REQUESTED:    5014416  ISSUED:    5014304  USEFUL:       1629  USELESS:      23837
L2C AVERAGE MISS LATENCY: 132.266 cycles
LLC TOTAL     ACCESS:     296247  HIT:     295656  MISS:        591
LLC LOAD      ACCESS:         85  HIT:         73  MISS:         12
LLC RFO       ACCESS:          2  HIT:          0  MISS:          2
LLC PREFETCH  ACCESS:     296070  HIT:     295493  MISS:        577
LLC WRITEBACK ACCESS:         90  HIT:         90  MISS:          0
LLC PREFETCH  REQUESTED:          0  ISSUED:          0  USEFUL:       5579  USELESS:      16120
LLC AVERAGE MISS LATENCY: 398.328 cycles
Major fault: 0 Minor fault: 1891
CPU 0 L1D next line prefetcher final stats

DRAM Statistics
 CHANNEL 0
 RQ ROW_BUFFER_HIT:        106  ROW_BUFFER_MISS:        485
 DBUS_CONGESTED:        428
 WQ ROW_BUFFER_HIT:         62  ROW_BUFFER_MISS:        355  FULL:          0

 AVG_CONGESTED_CYCLE: 6

CPU 0 Branch Prediction Accuracy: 99.9085% MPKI: 0.15428 Average ROB Occupancy at Mispredict: 50.1198

Branch types
NOT_BRANCH: 41572947 83.1459%
BRANCH_DIRECT_JUMP: 436253 0.872506%
BRANCH_INDIRECT: 0 0%
BRANCH_CONDITIONAL: 5395869 10.7917%
BRANCH_DIRECT_CALL: 1173385 2.34677%
BRANCH_INDIRECT_CALL: 123910 0.24782%
BRANCH_RETURN: 1297306 2.59461%
BRANCH_OTHER: 0 0%

