Initialize SIGNATURE TABLE
ST_SET: 1
ST_WAY: 256
ST_TAG_BIT: 16
ST_TAG_MASK: ffff

Initialize PATTERN TABLE
PT_SET: 512
PT_WAY: 4
SIG_DELTA_BIT: 7
C_SIG_BIT: 4
C_DELTA_BIT: 4

Initialize PREFETCH FILTER
FILTER_SET: 1024

*** ChampSim Multicore Out-of-Order Simulator ***

Warmup Instructions: 50000000
Simulation Instructions: 50000000
Number of CPUs: 1
LLC sets: 2048
LLC ways: 16
Off-chip DRAM Size: 4096 MB Channels: 1 Width: 64-bit Data Rate: 3200 MT/s

CPU 0 runs /u/j/t/jtong/ChampSim/ipc1_public/server_018.champsimtrace.xz
CPU 0 L1D next line prefetcher
Heartbeat CPU 0 instructions: 10000003 cycles: 3618296 heartbeat IPC: 2.76373 cumulative IPC: 2.76373 (Simulation time: 0 hr 0 min 47 sec) 
Heartbeat CPU 0 instructions: 20000001 cycles: 7241539 heartbeat IPC: 2.75996 cumulative IPC: 2.76184 (Simulation time: 0 hr 1 min 36 sec) 
Heartbeat CPU 0 instructions: 30000003 cycles: 10718307 heartbeat IPC: 2.87624 cumulative IPC: 2.79895 (Simulation time: 0 hr 2 min 29 sec) 
Heartbeat CPU 0 instructions: 40000000 cycles: 14231978 heartbeat IPC: 2.84603 cumulative IPC: 2.81057 (Simulation time: 0 hr 3 min 9 sec) 
Heartbeat CPU 0 instructions: 50000003 cycles: 17851111 heartbeat IPC: 2.76309 cumulative IPC: 2.80095 (Simulation time: 0 hr 3 min 44 sec) 

Warmup complete CPU 0 instructions: 50000003 cycles: 17851111 (Simulation time: 0 hr 3 min 44 sec) 

Heartbeat CPU 0 instructions: 60000000 cycles: 36042284 heartbeat IPC: 0.549717 cumulative IPC: 0.549717 (Simulation time: 0 hr 4 min 32 sec) 
Heartbeat CPU 0 instructions: 70000001 cycles: 54259492 heartbeat IPC: 0.548932 cumulative IPC: 0.549324 (Simulation time: 0 hr 5 min 20 sec) 
Heartbeat CPU 0 instructions: 80000003 cycles: 72415037 heartbeat IPC: 0.550796 cumulative IPC: 0.549814 (Simulation time: 0 hr 6 min 6 sec) 
Heartbeat CPU 0 instructions: 90000002 cycles: 90622983 heartbeat IPC: 0.549211 cumulative IPC: 0.549663 (Simulation time: 0 hr 6 min 54 sec) 
Heartbeat CPU 0 instructions: 100000001 cycles: 108831589 heartbeat IPC: 0.549191 cumulative IPC: 0.549568 (Simulation time: 0 hr 7 min 40 sec) 
Finished CPU 0 instructions: 50000002 cycles: 90980479 cumulative IPC: 0.549568 (Simulation time: 0 hr 7 min 40 sec) 

ChampSim completed all CPUs

Region of Interest Statistics

CPU 0 cumulative IPC: 0.549568 instructions: 50000002 cycles: 90980479
L1D TOTAL     ACCESS:   19444449  HIT:   17226807  MISS:    2217642
L1D LOAD      ACCESS:    7438098  HIT:    6719519  MISS:     718579
L1D RFO       ACCESS:    5822424  HIT:    4870145  MISS:     952279
L1D PREFETCH  ACCESS:    6183927  HIT:    5637143  MISS:     546784
L1D WRITEBACK ACCESS:          0  HIT:          0  MISS:          0
L1D PREFETCH  REQUESTED:   16708573  ISSUED:   16333944  USEFUL:     597500  USELESS:     709417
L1D AVERAGE MISS LATENCY: 174.07 cycles
L1I TOTAL     ACCESS:   11325564  HIT:    8254373  MISS:    3071191
L1I LOAD      ACCESS:    9731577  HIT:    7879748  MISS:    1851829
L1I RFO       ACCESS:          0  HIT:          0  MISS:          0
L1I PREFETCH  ACCESS:    1593987  HIT:     374625  MISS:    1219362
L1I WRITEBACK ACCESS:          0  HIT:          0  MISS:          0
L1I PREFETCH  REQUESTED:    6530557  ISSUED:    6530557  USEFUL:    1343875  USELESS:     986435
L1I AVERAGE MISS LATENCY: 15.2914 cycles
L2C TOTAL     ACCESS:    7987472  HIT:    6088358  MISS:    1899114
L2C LOAD      ACCESS:    1942888  HIT:    1612812  MISS:     330076
L2C RFO       ACCESS:     951846  HIT:      20045  MISS:     931801
L2C PREFETCH  ACCESS:    3922653  HIT:    3289050  MISS:     633603
L2C WRITEBACK ACCESS:    1170085  HIT:    1166451  MISS:       3634
L2C PREFETCH  REQUESTED:   10047399  ISSUED:   10034397  USEFUL:      70129  USELESS:    1202985
L2C AVERAGE MISS LATENCY: 206.842 cycles
LLC TOTAL     ACCESS:    4088766  HIT:    2622187  MISS:    1466579
LLC LOAD      ACCESS:     329978  HIT:     223451  MISS:     106527
LLC RFO       ACCESS:     931781  HIT:     135833  MISS:     795948
LLC PREFETCH  ACCESS:    1724405  HIT:    1162629  MISS:     561776
LLC WRITEBACK ACCESS:    1102602  HIT:    1100274  MISS:       2328
LLC PREFETCH  REQUESTED:          0  ISSUED:          0  USEFUL:      91836  USELESS:    1065649
LLC AVERAGE MISS LATENCY: 275.967 cycles
Major fault: 0 Minor fault: 22445
CPU 0 L1D next line prefetcher final stats

DRAM Statistics
 CHANNEL 0
 RQ ROW_BUFFER_HIT:     413403  ROW_BUFFER_MISS:    1050549
 DBUS_CONGESTED:    1469993
 WQ ROW_BUFFER_HIT:     245830  ROW_BUFFER_MISS:     654257  FULL:          0

 AVG_CONGESTED_CYCLE: 6

CPU 0 Branch Prediction Accuracy: 99.7114% MPKI: 0.47678 Average ROB Occupancy at Mispredict: 185.577

Branch types
NOT_BRANCH: 41741008 83.482%
BRANCH_DIRECT_JUMP: 458652 0.917304%
BRANCH_INDIRECT: 48282 0.096564%
BRANCH_CONDITIONAL: 5930881 11.8618%
BRANCH_DIRECT_CALL: 744230 1.48846%
BRANCH_INDIRECT_CALL: 166336 0.332672%
BRANCH_RETURN: 910589 1.82118%
BRANCH_OTHER: 0 0%

