Initialize SIGNATURE TABLE
ST_SET: 1
ST_WAY: 256
ST_TAG_BIT: 16
ST_TAG_MASK: ffff

Initialize PATTERN TABLE
PT_SET: 512
PT_WAY: 4
SIG_DELTA_BIT: 7
C_SIG_BIT: 4
C_DELTA_BIT: 4

Initialize PREFETCH FILTER
FILTER_SET: 1024

*** ChampSim Multicore Out-of-Order Simulator ***

Warmup Instructions: 50000000
Simulation Instructions: 50000000
Number of CPUs: 1
LLC sets: 2048
LLC ways: 16
Off-chip DRAM Size: 4096 MB Channels: 1 Width: 64-bit Data Rate: 3200 MT/s

CPU 0 runs /u/j/t/jtong/ChampSim/ipc1_public/server_011.champsimtrace.xz
CPU 0 L1D next line prefetcher
Heartbeat CPU 0 instructions: 10000002 cycles: 3200376 heartbeat IPC: 3.12463 cumulative IPC: 3.12463 (Simulation time: 0 hr 0 min 24 sec) 
Heartbeat CPU 0 instructions: 20000001 cycles: 6405922 heartbeat IPC: 3.11959 cumulative IPC: 3.12211 (Simulation time: 0 hr 0 min 49 sec) 
Heartbeat CPU 0 instructions: 30000001 cycles: 9656066 heartbeat IPC: 3.07679 cumulative IPC: 3.10686 (Simulation time: 0 hr 1 min 15 sec) 
Heartbeat CPU 0 instructions: 40000003 cycles: 12853519 heartbeat IPC: 3.12749 cumulative IPC: 3.11199 (Simulation time: 0 hr 1 min 39 sec) 
Heartbeat CPU 0 instructions: 50000000 cycles: 16057857 heartbeat IPC: 3.12077 cumulative IPC: 3.11374 (Simulation time: 0 hr 2 min 4 sec) 

Warmup complete CPU 0 instructions: 50000004 cycles: 16057858 (Simulation time: 0 hr 2 min 4 sec) 

Heartbeat CPU 0 instructions: 60000002 cycles: 25630364 heartbeat IPC: 1.04466 cumulative IPC: 1.04466 (Simulation time: 0 hr 2 min 27 sec) 
Heartbeat CPU 0 instructions: 70000001 cycles: 35567074 heartbeat IPC: 1.00637 cumulative IPC: 1.02516 (Simulation time: 0 hr 2 min 50 sec) 
Heartbeat CPU 0 instructions: 80000003 cycles: 45154060 heartbeat IPC: 1.04308 cumulative IPC: 1.03106 (Simulation time: 0 hr 3 min 11 sec) 
Heartbeat CPU 0 instructions: 90000001 cycles: 54925150 heartbeat IPC: 1.02343 cumulative IPC: 1.02914 (Simulation time: 0 hr 3 min 33 sec) 
Heartbeat CPU 0 instructions: 100000000 cycles: 64444344 heartbeat IPC: 1.05051 cumulative IPC: 1.03335 (Simulation time: 0 hr 3 min 55 sec) 
Finished CPU 0 instructions: 50000003 cycles: 48386498 cumulative IPC: 1.03335 (Simulation time: 0 hr 3 min 55 sec) 

ChampSim completed all CPUs

Region of Interest Statistics

CPU 0 cumulative IPC: 1.03335 instructions: 50000003 cycles: 48386498
L1D TOTAL     ACCESS:   18945995  HIT:   17913534  MISS:    1032461
L1D LOAD      ACCESS:    7158131  HIT:    6683593  MISS:     474538
L1D RFO       ACCESS:    4860526  HIT:    4778505  MISS:      82021
L1D PREFETCH  ACCESS:    6927338  HIT:    6451436  MISS:     475902
L1D WRITEBACK ACCESS:          0  HIT:          0  MISS:          0
L1D PREFETCH  REQUESTED:   16023209  ISSUED:   15796360  USEFUL:     304298  USELESS:     684552
L1D AVERAGE MISS LATENCY: 40.394 cycles
L1I TOTAL     ACCESS:    9320075  HIT:    7857739  MISS:    1462336
L1I LOAD      ACCESS:    8679303  HIT:    7723157  MISS:     956146
L1I RFO       ACCESS:          0  HIT:          0  MISS:          0
L1I PREFETCH  ACCESS:     640772  HIT:     134582  MISS:     506190
L1I WRITEBACK ACCESS:          0  HIT:          0  MISS:          0
L1I PREFETCH  REQUESTED:    3790573  ISSUED:    3790573  USEFUL:     723505  USELESS:     454456
L1I AVERAGE MISS LATENCY: 24.4507 cycles
L2C TOTAL     ACCESS:    3375802  HIT:    2197342  MISS:    1178460
L2C LOAD      ACCESS:    1059266  HIT:     634434  MISS:     424832
L2C RFO       ACCESS:      80217  HIT:      34956  MISS:      45261
L2C PREFETCH  ACCESS:    1968145  HIT:    1261016  MISS:     707129
L2C WRITEBACK ACCESS:     268174  HIT:     266936  MISS:       1238
L2C PREFETCH  REQUESTED:    5309529  ISSUED:    5302765  USEFUL:     120792  USELESS:    1337229
L2C AVERAGE MISS LATENCY: 49.1289 cycles
LLC TOTAL     ACCESS:    2258510  HIT:    2052798  MISS:     205712
LLC LOAD      ACCESS:     424470  HIT:     386862  MISS:      37608
LLC RFO       ACCESS:      45257  HIT:      31870  MISS:      13387
LLC PREFETCH  ACCESS:    1635798  HIT:    1481558  MISS:     154240
LLC WRITEBACK ACCESS:     152985  HIT:     152508  MISS:        477
LLC PREFETCH  REQUESTED:          0  ISSUED:          0  USEFUL:      46706  USELESS:     231206
LLC AVERAGE MISS LATENCY: 168.182 cycles
Major fault: 0 Minor fault: 6977
CPU 0 L1D next line prefetcher final stats

DRAM Statistics
 CHANNEL 0
 RQ ROW_BUFFER_HIT:      39701  ROW_BUFFER_MISS:     165521
 DBUS_CONGESTED:      89196
 WQ ROW_BUFFER_HIT:      13372  ROW_BUFFER_MISS:      50790  FULL:          0

 AVG_CONGESTED_CYCLE: 5

CPU 0 Branch Prediction Accuracy: 97.5565% MPKI: 4.59006 Average ROB Occupancy at Mispredict: 45.4201

Branch types
NOT_BRANCH: 40607199 81.2144%
BRANCH_DIRECT_JUMP: 451601 0.903202%
BRANCH_INDIRECT: 151580 0.30316%
BRANCH_CONDITIONAL: 7041635 14.0833%
BRANCH_DIRECT_CALL: 647827 1.29565%
BRANCH_INDIRECT_CALL: 211373 0.422746%
BRANCH_RETURN: 888439 1.77688%
BRANCH_OTHER: 0 0%

