Initialize SIGNATURE TABLE
ST_SET: 1
ST_WAY: 256
ST_TAG_BIT: 16
ST_TAG_MASK: ffff

Initialize PATTERN TABLE
PT_SET: 512
PT_WAY: 4
SIG_DELTA_BIT: 7
C_SIG_BIT: 4
C_DELTA_BIT: 4

Initialize PREFETCH FILTER
FILTER_SET: 1024

*** ChampSim Multicore Out-of-Order Simulator ***

Warmup Instructions: 50000000
Simulation Instructions: 50000000
Number of CPUs: 1
LLC sets: 2048
LLC ways: 16
Off-chip DRAM Size: 4096 MB Channels: 1 Width: 64-bit Data Rate: 3200 MT/s

CPU 0 runs /u/j/t/jtong/ChampSim/ipc1_public/server_014.champsimtrace.xz
CPU 0 L1D next line prefetcher
Heartbeat CPU 0 instructions: 10000003 cycles: 3519490 heartbeat IPC: 2.84132 cumulative IPC: 2.84132 (Simulation time: 0 hr 0 min 26 sec) 
Heartbeat CPU 0 instructions: 20000000 cycles: 7106212 heartbeat IPC: 2.78806 cumulative IPC: 2.81444 (Simulation time: 0 hr 0 min 51 sec) 
Heartbeat CPU 0 instructions: 30000001 cycles: 10647718 heartbeat IPC: 2.82366 cumulative IPC: 2.81751 (Simulation time: 0 hr 1 min 17 sec) 
Heartbeat CPU 0 instructions: 40000003 cycles: 14195939 heartbeat IPC: 2.81831 cumulative IPC: 2.81771 (Simulation time: 0 hr 1 min 57 sec) 
Heartbeat CPU 0 instructions: 50000000 cycles: 17744614 heartbeat IPC: 2.81795 cumulative IPC: 2.81776 (Simulation time: 0 hr 2 min 57 sec) 

Warmup complete CPU 0 instructions: 50000001 cycles: 17744615 (Simulation time: 0 hr 2 min 57 sec) 

Heartbeat CPU 0 instructions: 60000000 cycles: 25628939 heartbeat IPC: 1.26834 cumulative IPC: 1.26834 (Simulation time: 0 hr 3 min 44 sec) 
Heartbeat CPU 0 instructions: 70000000 cycles: 33507854 heartbeat IPC: 1.26921 cumulative IPC: 1.26877 (Simulation time: 0 hr 4 min 27 sec) 
*** Reached end of trace for Core: 0 Repeating trace: /u/j/t/jtong/ChampSim/ipc1_public/server_014.champsimtrace.xz
Heartbeat CPU 0 instructions: 80000001 cycles: 41300242 heartbeat IPC: 1.2833 cumulative IPC: 1.27358 (Simulation time: 0 hr 5 min 12 sec) 
Heartbeat CPU 0 instructions: 90000003 cycles: 50381647 heartbeat IPC: 1.10115 cumulative IPC: 1.2256 (Simulation time: 0 hr 5 min 53 sec) 
Heartbeat CPU 0 instructions: 100000001 cycles: 58423768 heartbeat IPC: 1.24345 cumulative IPC: 1.22913 (Simulation time: 0 hr 6 min 31 sec) 
Finished CPU 0 instructions: 50000000 cycles: 40679153 cumulative IPC: 1.22913 (Simulation time: 0 hr 6 min 31 sec) 

ChampSim completed all CPUs

Region of Interest Statistics

CPU 0 cumulative IPC: 1.22913 instructions: 50000000 cycles: 40679153
L1D TOTAL     ACCESS:   23167110  HIT:   23096255  MISS:      70855
L1D LOAD      ACCESS:    7418042  HIT:    7391197  MISS:      26845
L1D RFO       ACCESS:    8448583  HIT:    8416500  MISS:      32083
L1D PREFETCH  ACCESS:    7300485  HIT:    7288558  MISS:      11927
L1D WRITEBACK ACCESS:          0  HIT:          0  MISS:          0
L1D PREFETCH  REQUESTED:   16506647  ISSUED:   16268221  USEFUL:      16593  USELESS:      16508
L1D AVERAGE MISS LATENCY: 227.264 cycles
L1I TOTAL     ACCESS:   10835406  HIT:    8179380  MISS:    2656026
L1I LOAD      ACCESS:    9310999  HIT:    7621126  MISS:    1689873
L1I RFO       ACCESS:          0  HIT:          0  MISS:          0
L1I PREFETCH  ACCESS:    1524407  HIT:     558254  MISS:     966153
L1I WRITEBACK ACCESS:          0  HIT:          0  MISS:          0
L1I PREFETCH  REQUESTED:    5986858  ISSUED:    5986858  USEFUL:    1052142  USELESS:     907943
L1I AVERAGE MISS LATENCY: 13.3951 cycles
L2C TOTAL     ACCESS:    3992380  HIT:    3919991  MISS:      72389
L2C LOAD      ACCESS:    1445551  HIT:    1423126  MISS:      22425
L2C RFO       ACCESS:      32033  HIT:       1098  MISS:      30935
L2C PREFETCH  ACCESS:    2476427  HIT:    2457431  MISS:      18996
L2C WRITEBACK ACCESS:      38369  HIT:      38336  MISS:         33
L2C PREFETCH  REQUESTED:    5482239  ISSUED:    5481936  USEFUL:       3256  USELESS:      41333
L2C AVERAGE MISS LATENCY: 249.907 cycles
LLC TOTAL     ACCESS:     470391  HIT:     404314  MISS:      66077
LLC LOAD      ACCESS:      21162  HIT:       7314  MISS:      13848
LLC RFO       ACCESS:      30935  HIT:       4367  MISS:      26568
LLC PREFETCH  ACCESS:     383460  HIT:     357912  MISS:      25548
LLC WRITEBACK ACCESS:      34834  HIT:      34721  MISS:        113
LLC PREFETCH  REQUESTED:          0  ISSUED:          0  USEFUL:      11023  USELESS:      38035
LLC AVERAGE MISS LATENCY: 298.428 cycles
Major fault: 0 Minor fault: 1914
CPU 0 L1D next line prefetcher final stats

DRAM Statistics
 CHANNEL 0
 RQ ROW_BUFFER_HIT:      28576  ROW_BUFFER_MISS:      37386
 DBUS_CONGESTED:      68559
 WQ ROW_BUFFER_HIT:       8715  ROW_BUFFER_MISS:      24076  FULL:          0

 AVG_CONGESTED_CYCLE: 6

CPU 0 Branch Prediction Accuracy: 99.7719% MPKI: 0.38824 Average ROB Occupancy at Mispredict: 53.1233

Branch types
NOT_BRANCH: 41488798 82.9776%
BRANCH_DIRECT_JUMP: 449415 0.89883%
BRANCH_INDIRECT: 2330 0.00466%
BRANCH_CONDITIONAL: 5470000 10.94%
BRANCH_DIRECT_CALL: 1172177 2.34435%
BRANCH_INDIRECT_CALL: 122383 0.244766%
BRANCH_RETURN: 1294544 2.58909%
BRANCH_OTHER: 0 0%

