Initialize SIGNATURE TABLE
ST_SET: 1
ST_WAY: 256
ST_TAG_BIT: 16
ST_TAG_MASK: ffff

Initialize PATTERN TABLE
PT_SET: 512
PT_WAY: 4
SIG_DELTA_BIT: 7
C_SIG_BIT: 4
C_DELTA_BIT: 4

Initialize PREFETCH FILTER
FILTER_SET: 1024

*** ChampSim Multicore Out-of-Order Simulator ***

Warmup Instructions: 50000000
Simulation Instructions: 50000000
Number of CPUs: 1
LLC sets: 2048
LLC ways: 16
Off-chip DRAM Size: 4096 MB Channels: 1 Width: 64-bit Data Rate: 3200 MT/s

CPU 0 runs /u/j/t/jtong/ChampSim/ipc1_public/server_013.champsimtrace.xz
CPU 0 L1D next line prefetcher
Heartbeat CPU 0 instructions: 10000000 cycles: 3209731 heartbeat IPC: 3.11553 cumulative IPC: 3.11553 (Simulation time: 0 hr 0 min 25 sec) 
Heartbeat CPU 0 instructions: 20000001 cycles: 6408083 heartbeat IPC: 3.12661 cumulative IPC: 3.12106 (Simulation time: 0 hr 0 min 49 sec) 
Heartbeat CPU 0 instructions: 30000002 cycles: 9610411 heartbeat IPC: 3.12273 cumulative IPC: 3.12161 (Simulation time: 0 hr 1 min 12 sec) 
Heartbeat CPU 0 instructions: 40000002 cycles: 12808335 heartbeat IPC: 3.12703 cumulative IPC: 3.12297 (Simulation time: 0 hr 1 min 45 sec) 
Heartbeat CPU 0 instructions: 50000000 cycles: 16005773 heartbeat IPC: 3.1275 cumulative IPC: 3.12387 (Simulation time: 0 hr 2 min 36 sec) 

Warmup complete CPU 0 instructions: 50000004 cycles: 16005774 (Simulation time: 0 hr 2 min 36 sec) 

Heartbeat CPU 0 instructions: 60000000 cycles: 25750433 heartbeat IPC: 1.0262 cumulative IPC: 1.0262 (Simulation time: 0 hr 3 min 27 sec) 
Heartbeat CPU 0 instructions: 70000003 cycles: 35663708 heartbeat IPC: 1.00875 cumulative IPC: 1.0174 (Simulation time: 0 hr 4 min 18 sec) 
Heartbeat CPU 0 instructions: 80000001 cycles: 45022943 heartbeat IPC: 1.06846 cumulative IPC: 1.03387 (Simulation time: 0 hr 5 min 1 sec) 
Heartbeat CPU 0 instructions: 90000003 cycles: 54615013 heartbeat IPC: 1.04253 cumulative IPC: 1.03602 (Simulation time: 0 hr 5 min 43 sec) 
Heartbeat CPU 0 instructions: 100000003 cycles: 64206142 heartbeat IPC: 1.04263 cumulative IPC: 1.03734 (Simulation time: 0 hr 6 min 22 sec) 
Finished CPU 0 instructions: 50000003 cycles: 48200369 cumulative IPC: 1.03734 (Simulation time: 0 hr 6 min 22 sec) 

ChampSim completed all CPUs

Region of Interest Statistics

CPU 0 cumulative IPC: 1.03734 instructions: 50000003 cycles: 48200369
L1D TOTAL     ACCESS:   18239659  HIT:   17171691  MISS:    1067968
L1D LOAD      ACCESS:    6754881  HIT:    6262555  MISS:     492326
L1D RFO       ACCESS:    4961017  HIT:    4880761  MISS:      80256
L1D PREFETCH  ACCESS:    6523761  HIT:    6028375  MISS:     495386
L1D WRITEBACK ACCESS:          0  HIT:          0  MISS:          0
L1D PREFETCH  REQUESTED:   15508143  ISSUED:   15279411  USEFUL:     300490  USELESS:     704726
L1D AVERAGE MISS LATENCY: 41.7239 cycles
L1I TOTAL     ACCESS:    9164374  HIT:    7494470  MISS:    1669904
L1I LOAD      ACCESS:    8455758  HIT:    7350343  MISS:    1105415
L1I RFO       ACCESS:          0  HIT:          0  MISS:          0
L1I PREFETCH  ACCESS:     708616  HIT:     144127  MISS:     564489
L1I WRITEBACK ACCESS:          0  HIT:          0  MISS:          0
L1I PREFETCH  REQUESTED:    4197570  ISSUED:    4197570  USEFUL:     760572  USELESS:     486473
L1I AVERAGE MISS LATENCY: 23.7181 cycles
L2C TOTAL     ACCESS:    3613736  HIT:    2181080  MISS:    1432656
L2C LOAD      ACCESS:    1140406  HIT:     628157  MISS:     512249
L2C RFO       ACCESS:      78915  HIT:      30915  MISS:      48000
L2C PREFETCH  ACCESS:    2118551  HIT:    1247290  MISS:     871261
L2C WRITEBACK ACCESS:     275864  HIT:     274718  MISS:       1146
L2C PREFETCH  REQUESTED:    5639141  ISSUED:    5631514  USEFUL:     117377  USELESS:    1505056
L2C AVERAGE MISS LATENCY: 45.3045 cycles
LLC TOTAL     ACCESS:    2692292  HIT:    2494237  MISS:     198055
LLC LOAD      ACCESS:     511989  HIT:     477349  MISS:      34640
LLC RFO       ACCESS:      47996  HIT:      38117  MISS:       9879
LLC PREFETCH  ACCESS:    1959284  HIT:    1806153  MISS:     153131
LLC WRITEBACK ACCESS:     173023  HIT:     172618  MISS:        405
LLC PREFETCH  REQUESTED:          0  ISSUED:          0  USEFUL:      40651  USELESS:     224205
LLC AVERAGE MISS LATENCY: 167.587 cycles
Major fault: 0 Minor fault: 6207
CPU 0 L1D next line prefetcher final stats

DRAM Statistics
 CHANNEL 0
 RQ ROW_BUFFER_HIT:      34244  ROW_BUFFER_MISS:     163398
 DBUS_CONGESTED:      82435
 WQ ROW_BUFFER_HIT:      12525  ROW_BUFFER_MISS:      53434  FULL:          0

 AVG_CONGESTED_CYCLE: 5

CPU 0 Branch Prediction Accuracy: 99.4114% MPKI: 1.0933 Average ROB Occupancy at Mispredict: 73.6701

Branch types
NOT_BRANCH: 40713128 81.4263%
BRANCH_DIRECT_JUMP: 463699 0.927398%
BRANCH_INDIRECT: 146542 0.293084%
BRANCH_CONDITIONAL: 6981937 13.9639%
BRANCH_DIRECT_CALL: 665003 1.33001%
BRANCH_INDIRECT_CALL: 165150 0.3303%
BRANCH_RETURN: 864309 1.72862%
BRANCH_OTHER: 0 0%

