Initialize SIGNATURE TABLE
ST_SET: 1
ST_WAY: 256
ST_TAG_BIT: 16
ST_TAG_MASK: ffff

Initialize PATTERN TABLE
PT_SET: 512
PT_WAY: 4
SIG_DELTA_BIT: 7
C_SIG_BIT: 4
C_DELTA_BIT: 4

Initialize PREFETCH FILTER
FILTER_SET: 1024

*** ChampSim Multicore Out-of-Order Simulator ***

Warmup Instructions: 50000000
Simulation Instructions: 50000000
Number of CPUs: 1
LLC sets: 2048
LLC ways: 16
Off-chip DRAM Size: 4096 MB Channels: 1 Width: 64-bit Data Rate: 3200 MT/s

CPU 0 runs /u/j/t/jtong/ChampSim/ipc1_public/server_004.champsimtrace.xz
CPU 0 L1D next line prefetcher
Heartbeat CPU 0 instructions: 10000002 cycles: 3224437 heartbeat IPC: 3.10132 cumulative IPC: 3.10132 (Simulation time: 0 hr 0 min 27 sec) 
Heartbeat CPU 0 instructions: 20000002 cycles: 6556566 heartbeat IPC: 3.00108 cumulative IPC: 3.05038 (Simulation time: 0 hr 0 min 51 sec) 
Heartbeat CPU 0 instructions: 30000000 cycles: 11673444 heartbeat IPC: 1.95432 cumulative IPC: 2.56994 (Simulation time: 0 hr 1 min 22 sec) 
Heartbeat CPU 0 instructions: 40000003 cycles: 15418162 heartbeat IPC: 2.67043 cumulative IPC: 2.59434 (Simulation time: 0 hr 1 min 53 sec) 
Heartbeat CPU 0 instructions: 50000003 cycles: 18641553 heartbeat IPC: 3.10232 cumulative IPC: 2.68218 (Simulation time: 0 hr 2 min 18 sec) 

Warmup complete CPU 0 instructions: 50000003 cycles: 18641553 (Simulation time: 0 hr 2 min 18 sec) 

Heartbeat CPU 0 instructions: 60000002 cycles: 29379687 heartbeat IPC: 0.93126 cumulative IPC: 0.93126 (Simulation time: 0 hr 2 min 43 sec) 
Heartbeat CPU 0 instructions: 70000001 cycles: 39669127 heartbeat IPC: 0.97187 cumulative IPC: 0.951132 (Simulation time: 0 hr 3 min 15 sec) 
Heartbeat CPU 0 instructions: 80000001 cycles: 61396380 heartbeat IPC: 0.460251 cumulative IPC: 0.701675 (Simulation time: 0 hr 3 min 55 sec) 
Heartbeat CPU 0 instructions: 90000003 cycles: 76928225 heartbeat IPC: 0.643839 cumulative IPC: 0.686263 (Simulation time: 0 hr 4 min 21 sec) 
Heartbeat CPU 0 instructions: 100000003 cycles: 87764379 heartbeat IPC: 0.922837 cumulative IPC: 0.72335 (Simulation time: 0 hr 4 min 38 sec) 
Finished CPU 0 instructions: 50000000 cycles: 69122826 cumulative IPC: 0.72335 (Simulation time: 0 hr 4 min 38 sec) 

ChampSim completed all CPUs

Region of Interest Statistics

CPU 0 cumulative IPC: 0.72335 instructions: 50000000 cycles: 69122826
L1D TOTAL     ACCESS:   22238201  HIT:   18166353  MISS:    4071848
L1D LOAD      ACCESS:    8889176  HIT:    6875634  MISS:    2013542
L1D RFO       ACCESS:    4663091  HIT:    4556122  MISS:     106969
L1D PREFETCH  ACCESS:    8685934  HIT:    6734597  MISS:    1951337
L1D WRITEBACK ACCESS:          0  HIT:          0  MISS:          0
L1D PREFETCH  REQUESTED:   19642829  ISSUED:   19411910  USEFUL:     230631  USELESS:    3603607
L1D AVERAGE MISS LATENCY: 22.8558 cycles
L1I TOTAL     ACCESS:   11124716  HIT:    9838807  MISS:    1285909
L1I LOAD      ACCESS:   10559948  HIT:    9725476  MISS:     834472
L1I RFO       ACCESS:          0  HIT:          0  MISS:          0
L1I PREFETCH  ACCESS:     564768  HIT:     113331  MISS:     451437
L1I WRITEBACK ACCESS:          0  HIT:          0  MISS:          0
L1I PREFETCH  REQUESTED:    3106361  ISSUED:    3106361  USEFUL:     567567  USELESS:     412107
L1I AVERAGE MISS LATENCY: 27.2735 cycles
L2C TOTAL     ACCESS:    6978103  HIT:    5878076  MISS:    1100027
L2C LOAD      ACCESS:    2537173  HIT:    2127445  MISS:     409728
L2C RFO       ACCESS:     105672  HIT:      57666  MISS:      48006
L2C PREFETCH  ACCESS:    4090244  HIT:    3449195  MISS:     641049
L2C WRITEBACK ACCESS:     245014  HIT:     243770  MISS:       1244
L2C PREFETCH  REQUESTED:   11840959  ISSUED:   11016542  USEFUL:      93891  USELESS:    1118439
L2C AVERAGE MISS LATENCY: 56.2824 cycles
LLC TOTAL     ACCESS:    2412649  HIT:    2153774  MISS:     258875
LLC LOAD      ACCESS:     409221  HIT:     355045  MISS:      54176
LLC RFO       ACCESS:      48003  HIT:      32216  MISS:      15787
LLC PREFETCH  ACCESS:    1816579  HIT:    1628041  MISS:     188538
LLC WRITEBACK ACCESS:     138846  HIT:     138472  MISS:        374
LLC PREFETCH  REQUESTED:          0  ISSUED:          0  USEFUL:      52927  USELESS:     267238
LLC AVERAGE MISS LATENCY: 167.865 cycles
Major fault: 0 Minor fault: 7596
CPU 0 L1D next line prefetcher final stats

DRAM Statistics
 CHANNEL 0
 RQ ROW_BUFFER_HIT:      54888  ROW_BUFFER_MISS:     203597
 DBUS_CONGESTED:     107761
 WQ ROW_BUFFER_HIT:      11771  ROW_BUFFER_MISS:      45143  FULL:          0

 AVG_CONGESTED_CYCLE: 5

CPU 0 Branch Prediction Accuracy: 98.1603% MPKI: 3.89124 Average ROB Occupancy at Mispredict: 49.822

Branch types
NOT_BRANCH: 39423749 78.8475%
BRANCH_DIRECT_JUMP: 551642 1.10328%
BRANCH_INDIRECT: 139368 0.278736%
BRANCH_CONDITIONAL: 7920857 15.8417%
BRANCH_DIRECT_CALL: 776072 1.55214%
BRANCH_INDIRECT_CALL: 194644 0.389288%
BRANCH_RETURN: 993311 1.98662%
BRANCH_OTHER: 0 0%

