Initialize SIGNATURE TABLE
ST_SET: 1
ST_WAY: 256
ST_TAG_BIT: 16
ST_TAG_MASK: ffff

Initialize PATTERN TABLE
PT_SET: 512
PT_WAY: 4
SIG_DELTA_BIT: 7
C_SIG_BIT: 4
C_DELTA_BIT: 4

Initialize PREFETCH FILTER
FILTER_SET: 1024

*** ChampSim Multicore Out-of-Order Simulator ***

Warmup Instructions: 50000000
Simulation Instructions: 50000000
Number of CPUs: 1
LLC sets: 2048
LLC ways: 16
Off-chip DRAM Size: 4096 MB Channels: 1 Width: 64-bit Data Rate: 3200 MT/s

CPU 0 runs /u/j/t/jtong/ChampSim/ipc1_public/server_027.champsimtrace.xz
CPU 0 L1D next line prefetcher
Heartbeat CPU 0 instructions: 10000001 cycles: 3526650 heartbeat IPC: 2.83555 cumulative IPC: 2.83555 (Simulation time: 0 hr 0 min 27 sec) 
Heartbeat CPU 0 instructions: 20000001 cycles: 7058191 heartbeat IPC: 2.83162 cumulative IPC: 2.83359 (Simulation time: 0 hr 0 min 53 sec) 
Heartbeat CPU 0 instructions: 30000002 cycles: 10584600 heartbeat IPC: 2.83575 cumulative IPC: 2.83431 (Simulation time: 0 hr 1 min 20 sec) 
Heartbeat CPU 0 instructions: 40000003 cycles: 14116509 heartbeat IPC: 2.83133 cumulative IPC: 2.83356 (Simulation time: 0 hr 1 min 46 sec) 
Heartbeat CPU 0 instructions: 50000000 cycles: 17642396 heartbeat IPC: 2.83616 cumulative IPC: 2.83408 (Simulation time: 0 hr 2 min 13 sec) 

Warmup complete CPU 0 instructions: 50000004 cycles: 17642397 (Simulation time: 0 hr 2 min 13 sec) 

Heartbeat CPU 0 instructions: 60000002 cycles: 27243639 heartbeat IPC: 1.04153 cumulative IPC: 1.04153 (Simulation time: 0 hr 2 min 36 sec) 
Heartbeat CPU 0 instructions: 70000003 cycles: 36763225 heartbeat IPC: 1.05047 cumulative IPC: 1.04598 (Simulation time: 0 hr 2 min 59 sec) 
Heartbeat CPU 0 instructions: 80000002 cycles: 46316108 heartbeat IPC: 1.0468 cumulative IPC: 1.04625 (Simulation time: 0 hr 3 min 23 sec) 
Heartbeat CPU 0 instructions: 90000001 cycles: 55913741 heartbeat IPC: 1.04192 cumulative IPC: 1.04517 (Simulation time: 0 hr 3 min 46 sec) 
Heartbeat CPU 0 instructions: 100000002 cycles: 65394228 heartbeat IPC: 1.0548 cumulative IPC: 1.04708 (Simulation time: 0 hr 4 min 9 sec) 
Finished CPU 0 instructions: 50000002 cycles: 47751832 cumulative IPC: 1.04708 (Simulation time: 0 hr 4 min 9 sec) 

ChampSim completed all CPUs

Region of Interest Statistics

CPU 0 cumulative IPC: 1.04708 instructions: 50000002 cycles: 47751832
L1D TOTAL     ACCESS:   21989724  HIT:   20386113  MISS:    1603611
L1D LOAD      ACCESS:    7952381  HIT:    7269872  MISS:     682509
L1D RFO       ACCESS:    6350591  HIT:    6064151  MISS:     286440
L1D PREFETCH  ACCESS:    7686752  HIT:    7052090  MISS:     634662
L1D WRITEBACK ACCESS:          0  HIT:          0  MISS:          0
L1D PREFETCH  REQUESTED:   17521070  ISSUED:   17242543  USEFUL:     341254  USELESS:     950355
L1D AVERAGE MISS LATENCY: 24.9703 cycles
L1I TOTAL     ACCESS:   10741435  HIT:    7273784  MISS:    3467651
L1I LOAD      ACCESS:    9061046  HIT:    6955179  MISS:    2105867
L1I RFO       ACCESS:          0  HIT:          0  MISS:          0
L1I PREFETCH  ACCESS:    1680389  HIT:     318605  MISS:    1361784
L1I WRITEBACK ACCESS:          0  HIT:          0  MISS:          0
L1I PREFETCH  REQUESTED:    7347461  ISSUED:    7347461  USEFUL:    1490728  USELESS:    1275358
L1I AVERAGE MISS LATENCY: 17.7049 cycles
L2C TOTAL     ACCESS:    7152972  HIT:    5971702  MISS:    1181270
L2C LOAD      ACCESS:    2250322  HIT:    1783701  MISS:     466621
L2C RFO       ACCESS:     284389  HIT:     176287  MISS:     108102
L2C PREFETCH  ACCESS:    4058877  HIT:    3456549  MISS:     602328
L2C WRITEBACK ACCESS:     559384  HIT:     555165  MISS:       4219
L2C PREFETCH  REQUESTED:    9843735  ISSUED:    9812432  USEFUL:      92326  USELESS:    1079367
L2C AVERAGE MISS LATENCY: 36.8036 cycles
LLC TOTAL     ACCESS:    2676286  HIT:    2642175  MISS:      34111
LLC LOAD      ACCESS:     466471  HIT:     462455  MISS:       4016
LLC RFO       ACCESS:     108070  HIT:      94174  MISS:      13896
LLC PREFETCH  ACCESS:    1918200  HIT:    1902124  MISS:      16076
LLC WRITEBACK ACCESS:     183545  HIT:     183422  MISS:        123
LLC PREFETCH  REQUESTED:          0  ISSUED:          0  USEFUL:       4229  USELESS:      21433
LLC AVERAGE MISS LATENCY: 184.226 cycles
Major fault: 0 Minor fault: 2485
CPU 0 L1D next line prefetcher final stats

DRAM Statistics
 CHANNEL 0
 RQ ROW_BUFFER_HIT:      11308  ROW_BUFFER_MISS:      22678
 DBUS_CONGESTED:      24278
 WQ ROW_BUFFER_HIT:       1527  ROW_BUFFER_MISS:      14960  FULL:          0

 AVG_CONGESTED_CYCLE: 6

CPU 0 Branch Prediction Accuracy: 99.8082% MPKI: 0.35064 Average ROB Occupancy at Mispredict: 84.9869

Branch types
NOT_BRANCH: 40857229 81.7145%
BRANCH_DIRECT_JUMP: 526631 1.05326%
BRANCH_INDIRECT: 205902 0.411804%
BRANCH_CONDITIONAL: 6184014 12.368%
BRANCH_DIRECT_CALL: 938462 1.87692%
BRANCH_INDIRECT_CALL: 174486 0.348972%
BRANCH_RETURN: 1112952 2.2259%
BRANCH_OTHER: 0 0%

