Initialize SIGNATURE TABLE
ST_SET: 1
ST_WAY: 256
ST_TAG_BIT: 16
ST_TAG_MASK: ffff

Initialize PATTERN TABLE
PT_SET: 512
PT_WAY: 4
SIG_DELTA_BIT: 7
C_SIG_BIT: 4
C_DELTA_BIT: 4

Initialize PREFETCH FILTER
FILTER_SET: 1024

*** ChampSim Multicore Out-of-Order Simulator ***

Warmup Instructions: 50000000
Simulation Instructions: 50000000
Number of CPUs: 1
LLC sets: 2048
LLC ways: 16
Off-chip DRAM Size: 4096 MB Channels: 1 Width: 64-bit Data Rate: 3200 MT/s

CPU 0 runs /u/j/t/jtong/ChampSim/ipc1_public/spec_gobmk_002.champsimtrace.xz
CPU 0 L1D next line prefetcher
Heartbeat CPU 0 instructions: 10000001 cycles: 3287400 heartbeat IPC: 3.04192 cumulative IPC: 3.04192 (Simulation time: 0 hr 0 min 35 sec) 
Heartbeat CPU 0 instructions: 20000000 cycles: 6618935 heartbeat IPC: 3.00162 cumulative IPC: 3.02163 (Simulation time: 0 hr 1 min 9 sec) 
Heartbeat CPU 0 instructions: 30000000 cycles: 9956892 heartbeat IPC: 2.99584 cumulative IPC: 3.01299 (Simulation time: 0 hr 1 min 43 sec) 
Heartbeat CPU 0 instructions: 40000000 cycles: 13266348 heartbeat IPC: 3.02164 cumulative IPC: 3.01515 (Simulation time: 0 hr 2 min 17 sec) 
Heartbeat CPU 0 instructions: 50000003 cycles: 16529908 heartbeat IPC: 3.06414 cumulative IPC: 3.02482 (Simulation time: 0 hr 2 min 52 sec) 

Warmup complete CPU 0 instructions: 50000003 cycles: 16529908 (Simulation time: 0 hr 2 min 52 sec) 

Heartbeat CPU 0 instructions: 60000002 cycles: 24510296 heartbeat IPC: 1.25307 cumulative IPC: 1.25307 (Simulation time: 0 hr 3 min 19 sec) 
Heartbeat CPU 0 instructions: 70000001 cycles: 32461699 heartbeat IPC: 1.25764 cumulative IPC: 1.25535 (Simulation time: 0 hr 3 min 45 sec) 
Heartbeat CPU 0 instructions: 80000001 cycles: 40225251 heartbeat IPC: 1.28807 cumulative IPC: 1.26607 (Simulation time: 0 hr 4 min 13 sec) 
Heartbeat CPU 0 instructions: 90000001 cycles: 48266913 heartbeat IPC: 1.24352 cumulative IPC: 1.26036 (Simulation time: 0 hr 4 min 41 sec) 
Heartbeat CPU 0 instructions: 100000003 cycles: 56519218 heartbeat IPC: 1.21178 cumulative IPC: 1.25033 (Simulation time: 0 hr 5 min 9 sec) 
Finished CPU 0 instructions: 50000000 cycles: 39989310 cumulative IPC: 1.25033 (Simulation time: 0 hr 5 min 9 sec) 

ChampSim completed all CPUs

Region of Interest Statistics

CPU 0 cumulative IPC: 1.25033 instructions: 50000000 cycles: 39989310
L1D TOTAL     ACCESS:   17847141  HIT:   17724007  MISS:     123134
L1D LOAD      ACCESS:    6762698  HIT:    6728572  MISS:      34126
L1D RFO       ACCESS:    4397219  HIT:    4354588  MISS:      42631
L1D PREFETCH  ACCESS:    6687224  HIT:    6640847  MISS:      46377
L1D WRITEBACK ACCESS:          0  HIT:          0  MISS:          0
L1D PREFETCH  REQUESTED:   14485650  ISSUED:   14318373  USEFUL:      39225  USELESS:      64085
L1D AVERAGE MISS LATENCY: 50.0117 cycles
L1I TOTAL     ACCESS:    9189353  HIT:    8595417  MISS:     593936
L1I LOAD      ACCESS:    8827614  HIT:    8450069  MISS:     377545
L1I RFO       ACCESS:          0  HIT:          0  MISS:          0
L1I PREFETCH  ACCESS:     361739  HIT:     145348  MISS:     216391
L1I WRITEBACK ACCESS:          0  HIT:          0  MISS:          0
L1I PREFETCH  REQUESTED:    1358578  ISSUED:    1358578  USEFUL:     287938  USELESS:     163738
L1I AVERAGE MISS LATENCY: 13.4145 cycles
L2C TOTAL     ACCESS:    1135762  HIT:    1097561  MISS:      38201
L2C LOAD      ACCESS:     356351  HIT:     342230  MISS:      14121
L2C RFO       ACCESS:      42515  HIT:      39648  MISS:       2867
L2C PREFETCH  ACCESS:     662691  HIT:     641650  MISS:      21041
L2C WRITEBACK ACCESS:      74205  HIT:      74033  MISS:        172
L2C PREFETCH  REQUESTED:    1260700  ISSUED:    1257849  USEFUL:       7437  USELESS:      40905
L2C AVERAGE MISS LATENCY: 122.982 cycles
LLC TOTAL     ACCESS:     102896  HIT:      69687  MISS:      33209
LLC LOAD      ACCESS:      14121  HIT:       5693  MISS:       8428
LLC RFO       ACCESS:       2867  HIT:       1256  MISS:       1611
LLC PREFETCH  ACCESS:      67838  HIT:      45168  MISS:      22670
LLC WRITEBACK ACCESS:      18070  HIT:      17570  MISS:        500
LLC PREFETCH  REQUESTED:          0  ISSUED:          0  USEFUL:       5517  USELESS:      30777
LLC AVERAGE MISS LATENCY: 183.702 cycles
Major fault: 0 Minor fault: 2781
CPU 0 L1D next line prefetcher final stats

DRAM Statistics
 CHANNEL 0
 RQ ROW_BUFFER_HIT:       2712  ROW_BUFFER_MISS:      29997
 DBUS_CONGESTED:      17534
 WQ ROW_BUFFER_HIT:        680  ROW_BUFFER_MISS:      13339  FULL:          0

 AVG_CONGESTED_CYCLE: 4

CPU 0 Branch Prediction Accuracy: 93.9974% MPKI: 10.2447 Average ROB Occupancy at Mispredict: 35.16

Branch types
NOT_BRANCH: 41466058 82.9321%
BRANCH_DIRECT_JUMP: 464313 0.928626%
BRANCH_INDIRECT: 32 6.4e-05%
BRANCH_CONDITIONAL: 7069453 14.1389%
BRANCH_DIRECT_CALL: 499587 0.999174%
BRANCH_INDIRECT_CALL: 342 0.000684%
BRANCH_RETURN: 499906 0.999812%
BRANCH_OTHER: 0 0%

