Initialize SIGNATURE TABLE
ST_SET: 1
ST_WAY: 256
ST_TAG_BIT: 16
ST_TAG_MASK: ffff

Initialize PATTERN TABLE
PT_SET: 512
PT_WAY: 4
SIG_DELTA_BIT: 7
C_SIG_BIT: 4
C_DELTA_BIT: 4

Initialize PREFETCH FILTER
FILTER_SET: 1024

*** ChampSim Multicore Out-of-Order Simulator ***

Warmup Instructions: 50000000
Simulation Instructions: 50000000
Number of CPUs: 1
LLC sets: 2048
LLC ways: 16
Off-chip DRAM Size: 4096 MB Channels: 1 Width: 64-bit Data Rate: 3200 MT/s

CPU 0 runs /u/j/t/jtong/ChampSim/ipc1_public/spec_gcc_002.champsimtrace.xz
CPU 0 L1D next line prefetcher
Heartbeat CPU 0 instructions: 10000002 cycles: 3567945 heartbeat IPC: 2.80273 cumulative IPC: 2.80273 (Simulation time: 0 hr 0 min 42 sec) 
Heartbeat CPU 0 instructions: 20000000 cycles: 7145898 heartbeat IPC: 2.79489 cumulative IPC: 2.79881 (Simulation time: 0 hr 1 min 23 sec) 
Heartbeat CPU 0 instructions: 30000000 cycles: 10787747 heartbeat IPC: 2.74586 cumulative IPC: 2.78093 (Simulation time: 0 hr 2 min 11 sec) 
Heartbeat CPU 0 instructions: 40000000 cycles: 14336612 heartbeat IPC: 2.8178 cumulative IPC: 2.79006 (Simulation time: 0 hr 2 min 52 sec) 
Heartbeat CPU 0 instructions: 50000002 cycles: 17827360 heartbeat IPC: 2.86472 cumulative IPC: 2.80468 (Simulation time: 0 hr 3 min 28 sec) 

Warmup complete CPU 0 instructions: 50000002 cycles: 17827360 (Simulation time: 0 hr 3 min 28 sec) 

Heartbeat CPU 0 instructions: 60000001 cycles: 57142229 heartbeat IPC: 0.254357 cumulative IPC: 0.254357 (Simulation time: 0 hr 4 min 54 sec) 
Heartbeat CPU 0 instructions: 70000001 cycles: 90082862 heartbeat IPC: 0.303576 cumulative IPC: 0.276796 (Simulation time: 0 hr 6 min 8 sec) 
Heartbeat CPU 0 instructions: 80000002 cycles: 140091490 heartbeat IPC: 0.199966 cumulative IPC: 0.24537 (Simulation time: 0 hr 7 min 39 sec) 
Heartbeat CPU 0 instructions: 90000001 cycles: 185565242 heartbeat IPC: 0.219907 cumulative IPC: 0.238467 (Simulation time: 0 hr 9 min 1 sec) 
Heartbeat CPU 0 instructions: 100000000 cycles: 216860665 heartbeat IPC: 0.319536 cumulative IPC: 0.251214 (Simulation time: 0 hr 10 min 6 sec) 
Finished CPU 0 instructions: 50000002 cycles: 199033313 cumulative IPC: 0.251214 (Simulation time: 0 hr 10 min 6 sec) 

ChampSim completed all CPUs

Region of Interest Statistics

CPU 0 cumulative IPC: 0.251214 instructions: 50000002 cycles: 199033313
L1D TOTAL     ACCESS:   18626706  HIT:   13392652  MISS:    5234054
L1D LOAD      ACCESS:    6536600  HIT:    5484881  MISS:    1051719
L1D RFO       ACCESS:    7055123  HIT:    3454225  MISS:    3600898
L1D PREFETCH  ACCESS:    5034983  HIT:    4453546  MISS:     581437
L1D WRITEBACK ACCESS:          0  HIT:          0  MISS:          0
L1D PREFETCH  REQUESTED:   14095864  ISSUED:   13939766  USEFUL:    1167593  USELESS:     305509
L1D AVERAGE MISS LATENCY: 330.663 cycles
L1I TOTAL     ACCESS:   12438536  HIT:   11675211  MISS:     763325
L1I LOAD      ACCESS:   12064180  HIT:   11585560  MISS:     478620
L1I RFO       ACCESS:          0  HIT:          0  MISS:          0
L1I PREFETCH  ACCESS:     374356  HIT:      89651  MISS:     284705
L1I WRITEBACK ACCESS:          0  HIT:          0  MISS:          0
L1I PREFETCH  REQUESTED:    1623733  ISSUED:    1623733  USEFUL:     302274  USELESS:     286743
L1I AVERAGE MISS LATENCY: 56.7289 cycles
L2C TOTAL     ACCESS:   10105415  HIT:    4780971  MISS:    5324444
L2C LOAD      ACCESS:     618263  HIT:     337073  MISS:     281190
L2C RFO       ACCESS:    3599375  HIT:      12478  MISS:    3586897
L2C PREFETCH  ACCESS:    2162209  HIT:     705962  MISS:    1456247
L2C WRITEBACK ACCESS:    3725568  HIT:    3725458  MISS:        110
L2C PREFETCH  REQUESTED:    7393001  ISSUED:    7390524  USEFUL:      76381  USELESS:    2700847
L2C AVERAGE MISS LATENCY: 337.219 cycles
LLC TOTAL     ACCESS:    9946016  HIT:    6138125  MISS:    3807891
LLC LOAD      ACCESS:     281015  HIT:     167879  MISS:     113136
LLC RFO       ACCESS:    3586898  HIT:     623651  MISS:    2963247
LLC PREFETCH  ACCESS:    2409991  HIT:    1678483  MISS:     731508
LLC WRITEBACK ACCESS:    3668112  HIT:    3668112  MISS:          0
LLC PREFETCH  REQUESTED:          0  ISSUED:          0  USEFUL:     349163  USELESS:    1172533
LLC AVERAGE MISS LATENCY: 450.423 cycles
Major fault: 0 Minor fault: 4156
CPU 0 L1D next line prefetcher final stats

DRAM Statistics
 CHANNEL 0
 RQ ROW_BUFFER_HIT:    1015249  ROW_BUFFER_MISS:    2789999
 DBUS_CONGESTED:    5472538
 WQ ROW_BUFFER_HIT:     943008  ROW_BUFFER_MISS:    2198959  FULL:          0

 AVG_CONGESTED_CYCLE: 6

CPU 0 Branch Prediction Accuracy: 99.5987% MPKI: 0.82446 Average ROB Occupancy at Mispredict: 98.5807

Branch types
NOT_BRANCH: 39726807 79.4536%
BRANCH_DIRECT_JUMP: 391439 0.782878%
BRANCH_INDIRECT: 62076 0.124152%
BRANCH_CONDITIONAL: 8421541 16.8431%
BRANCH_DIRECT_CALL: 672962 1.34592%
BRANCH_INDIRECT_CALL: 26115 0.05223%
BRANCH_RETURN: 699082 1.39816%
BRANCH_OTHER: 0 0%

