Initialize SIGNATURE TABLE
ST_SET: 1
ST_WAY: 256
ST_TAG_BIT: 16
ST_TAG_MASK: ffff

Initialize PATTERN TABLE
PT_SET: 512
PT_WAY: 4
SIG_DELTA_BIT: 7
C_SIG_BIT: 4
C_DELTA_BIT: 4

Initialize PREFETCH FILTER
FILTER_SET: 1024

*** ChampSim Multicore Out-of-Order Simulator ***

Warmup Instructions: 50000000
Simulation Instructions: 50000000
Number of CPUs: 1
LLC sets: 2048
LLC ways: 16
Off-chip DRAM Size: 4096 MB Channels: 1 Width: 64-bit Data Rate: 3200 MT/s

CPU 0 runs /home/tongjie/ChampSim-master/ipc1_public/client_004.champsimtrace.xz
CPU 0 L1D next line prefetcher
Heartbeat CPU 0 instructions: 10000000 cycles: 3592511 heartbeat IPC: 2.78357 cumulative IPC: 2.78357 (Simulation time: 0 hr 0 min 24 sec) 
Heartbeat CPU 0 instructions: 20000003 cycles: 7057182 heartbeat IPC: 2.88628 cumulative IPC: 2.83399 (Simulation time: 0 hr 0 min 48 sec) 
Heartbeat CPU 0 instructions: 30000000 cycles: 10648004 heartbeat IPC: 2.78488 cumulative IPC: 2.81743 (Simulation time: 0 hr 1 min 13 sec) 
Heartbeat CPU 0 instructions: 40000003 cycles: 14328650 heartbeat IPC: 2.71692 cumulative IPC: 2.79161 (Simulation time: 0 hr 1 min 36 sec) 
Heartbeat CPU 0 instructions: 50000001 cycles: 17847200 heartbeat IPC: 2.84208 cumulative IPC: 2.80156 (Simulation time: 0 hr 2 min 0 sec) 

Warmup complete CPU 0 instructions: 50000001 cycles: 17847200 (Simulation time: 0 hr 2 min 0 sec) 

Heartbeat CPU 0 instructions: 60000002 cycles: 26860754 heartbeat IPC: 1.10944 cumulative IPC: 1.10944 (Simulation time: 0 hr 2 min 22 sec) 
Heartbeat CPU 0 instructions: 70000001 cycles: 35556927 heartbeat IPC: 1.14993 cumulative IPC: 1.12932 (Simulation time: 0 hr 2 min 45 sec) 
Heartbeat CPU 0 instructions: 80000002 cycles: 45376877 heartbeat IPC: 1.01834 cumulative IPC: 1.08973 (Simulation time: 0 hr 3 min 9 sec) 
Heartbeat CPU 0 instructions: 90000000 cycles: 54328613 heartbeat IPC: 1.1171 cumulative IPC: 1.09645 (Simulation time: 0 hr 3 min 30 sec) 
Heartbeat CPU 0 instructions: 100000001 cycles: 63255979 heartbeat IPC: 1.12015 cumulative IPC: 1.10111 (Simulation time: 0 hr 3 min 51 sec) 
Finished CPU 0 instructions: 50000000 cycles: 45408779 cumulative IPC: 1.10111 (Simulation time: 0 hr 3 min 51 sec) 

ChampSim completed all CPUs

Region of Interest Statistics

CPU 0 cumulative IPC: 1.10111 instructions: 50000000 cycles: 45408779
L1D TOTAL     ACCESS:   22371203  HIT:   21481877  MISS:     889326
L1D LOAD      ACCESS:    8908375  HIT:    8514751  MISS:     393624
L1D RFO       ACCESS:    4841668  HIT:    4720591  MISS:     121077
L1D PREFETCH  ACCESS:    8621160  HIT:    8246535  MISS:     374625
L1D WRITEBACK ACCESS:          0  HIT:          0  MISS:          0
L1D PREFETCH  REQUESTED:   20007845  ISSUED:   19570560  USEFUL:     249623  USELESS:     442842
L1D AVERAGE MISS LATENCY: 28.737 cycles
L1I TOTAL     ACCESS:    9476862  HIT:    8966347  MISS:     510515
L1I LOAD      ACCESS:    9429779  HIT:    8940477  MISS:     489302
L1I RFO       ACCESS:          0  HIT:          0  MISS:          0
L1I PREFETCH  ACCESS:      47083  HIT:      25870  MISS:      21213
L1I WRITEBACK ACCESS:          0  HIT:          0  MISS:          0
L1I PREFETCH  REQUESTED:     386468  ISSUED:     386468  USEFUL:      45616  USELESS:      15477
L1I AVERAGE MISS LATENCY: 27.256 cycles
L2C TOTAL     ACCESS:    2294295  HIT:    2025180  MISS:     269115
L2C LOAD      ACCESS:     852629  HIT:     709829  MISS:     142800
L2C RFO       ACCESS:     117192  HIT:      47856  MISS:      69336
L2C PREFETCH  ACCESS:    1102380  HIT:    1045896  MISS:      56484
L2C WRITEBACK ACCESS:     222094  HIT:     221599  MISS:        495
L2C PREFETCH  REQUESTED:    2284258  ISSUED:    2280741  USEFUL:      30426  USELESS:     115380
L2C AVERAGE MISS LATENCY: 74.4343 cycles
LLC TOTAL     ACCESS:     641232  HIT:     516414  MISS:     124818
LLC LOAD      ACCESS:     142705  HIT:     109922  MISS:      32783
LLC RFO       ACCESS:      69335  HIT:      39800  MISS:      29535
LLC PREFETCH  ACCESS:     332105  HIT:     269870  MISS:      62235
LLC WRITEBACK ACCESS:      97087  HIT:      96822  MISS:        265
LLC PREFETCH  REQUESTED:          0  ISSUED:          0  USEFUL:      60369  USELESS:      81936
LLC AVERAGE MISS LATENCY: 162.184 cycles
Major fault: 0 Minor fault: 3976
CPU 0 L1D next line prefetcher final stats

DRAM Statistics
 CHANNEL 0
 RQ ROW_BUFFER_HIT:      30799  ROW_BUFFER_MISS:      93745
 DBUS_CONGESTED:      50831
 WQ ROW_BUFFER_HIT:       9655  ROW_BUFFER_MISS:      32396  FULL:          0

 AVG_CONGESTED_CYCLE: 5

CPU 0 Branch Prediction Accuracy: 94.1242% MPKI: 11.6089 Average ROB Occupancy at Mispredict: 46.6797

Branch types
NOT_BRANCH: 40121052 80.2421%
BRANCH_DIRECT_JUMP: 644555 1.28911%
BRANCH_INDIRECT: 201946 0.403892%
BRANCH_CONDITIONAL: 7003555 14.0071%
BRANCH_DIRECT_CALL: 564820 1.12964%
BRANCH_INDIRECT_CALL: 445012 0.890024%
BRANCH_RETURN: 1018716 2.03743%
BRANCH_OTHER: 0 0%

