Initialize SIGNATURE TABLE
ST_SET: 1
ST_WAY: 256
ST_TAG_BIT: 16
ST_TAG_MASK: ffff

Initialize PATTERN TABLE
PT_SET: 512
PT_WAY: 4
SIG_DELTA_BIT: 7
C_SIG_BIT: 4
C_DELTA_BIT: 4

Initialize PREFETCH FILTER
FILTER_SET: 1024

*** ChampSim Multicore Out-of-Order Simulator ***

Warmup Instructions: 50000000
Simulation Instructions: 50000000
Number of CPUs: 1
LLC sets: 2048
LLC ways: 16
Off-chip DRAM Size: 4096 MB Channels: 1 Width: 64-bit Data Rate: 3200 MT/s

CPU 0 runs /home/tongjie/ChampSim-master/ipc1_public/client_008.champsimtrace.xz
CPU 0 L1D next line prefetcher
Heartbeat CPU 0 instructions: 10000001 cycles: 3751437 heartbeat IPC: 2.66565 cumulative IPC: 2.66565 (Simulation time: 0 hr 0 min 28 sec) 
Heartbeat CPU 0 instructions: 20000001 cycles: 7524532 heartbeat IPC: 2.65034 cumulative IPC: 2.65797 (Simulation time: 0 hr 0 min 57 sec) 
Heartbeat CPU 0 instructions: 30000000 cycles: 11249034 heartbeat IPC: 2.68492 cumulative IPC: 2.6669 (Simulation time: 0 hr 1 min 32 sec) 
Heartbeat CPU 0 instructions: 40000002 cycles: 15040384 heartbeat IPC: 2.63758 cumulative IPC: 2.65951 (Simulation time: 0 hr 2 min 2 sec) 
Heartbeat CPU 0 instructions: 50000003 cycles: 18829097 heartbeat IPC: 2.63942 cumulative IPC: 2.65546 (Simulation time: 0 hr 2 min 31 sec) 

Warmup complete CPU 0 instructions: 50000003 cycles: 18829097 (Simulation time: 0 hr 2 min 31 sec) 

Heartbeat CPU 0 instructions: 60000000 cycles: 27755427 heartbeat IPC: 1.12028 cumulative IPC: 1.12028 (Simulation time: 0 hr 3 min 2 sec) 
Heartbeat CPU 0 instructions: 70000000 cycles: 36271999 heartbeat IPC: 1.17418 cumulative IPC: 1.1466 (Simulation time: 0 hr 3 min 32 sec) 
Heartbeat CPU 0 instructions: 80000001 cycles: 45517080 heartbeat IPC: 1.08166 cumulative IPC: 1.1241 (Simulation time: 0 hr 3 min 55 sec) 
Heartbeat CPU 0 instructions: 90000001 cycles: 52940499 heartbeat IPC: 1.34709 cumulative IPC: 1.17263 (Simulation time: 0 hr 4 min 14 sec) 
Heartbeat CPU 0 instructions: 100000001 cycles: 60987440 heartbeat IPC: 1.24271 cumulative IPC: 1.186 (Simulation time: 0 hr 4 min 31 sec) 
Finished CPU 0 instructions: 50000002 cycles: 42158344 cumulative IPC: 1.186 (Simulation time: 0 hr 4 min 31 sec) 

ChampSim completed all CPUs

Region of Interest Statistics

CPU 0 cumulative IPC: 1.186 instructions: 50000002 cycles: 42158344
L1D TOTAL     ACCESS:   20795451  HIT:   19165768  MISS:    1629683
L1D LOAD      ACCESS:    8208340  HIT:    7414039  MISS:     794301
L1D RFO       ACCESS:    4827179  HIT:    4718822  MISS:     108357
L1D PREFETCH  ACCESS:    7759932  HIT:    7032907  MISS:     727025
L1D WRITEBACK ACCESS:          0  HIT:          0  MISS:          0
L1D PREFETCH  REQUESTED:   21061312  ISSUED:   20489544  USEFUL:     568289  USELESS:    1353962
L1D AVERAGE MISS LATENCY: 32.2444 cycles
L1I TOTAL     ACCESS:    9953818  HIT:    9212975  MISS:     740843
L1I LOAD      ACCESS:    9636170  HIT:    9092464  MISS:     543706
L1I RFO       ACCESS:          0  HIT:          0  MISS:          0
L1I PREFETCH  ACCESS:     317648  HIT:     120511  MISS:     197137
L1I WRITEBACK ACCESS:          0  HIT:          0  MISS:          0
L1I PREFETCH  REQUESTED:    3856608  ISSUED:    3856608  USEFUL:     613557  USELESS:     114885
L1I AVERAGE MISS LATENCY: 14.9037 cycles
L2C TOTAL     ACCESS:    3532863  HIT:    3093955  MISS:     438908
L2C LOAD      ACCESS:    1180366  HIT:     996753  MISS:     183613
L2C RFO       ACCESS:     103163  HIT:      18207  MISS:      84956
L2C PREFETCH  ACCESS:    2067310  HIT:    1897373  MISS:     169937
L2C WRITEBACK ACCESS:     182024  HIT:     181622  MISS:        402
L2C PREFETCH  REQUESTED:    6221834  ISSUED:    6218831  USEFUL:      44621  USELESS:     300241
L2C AVERAGE MISS LATENCY: 74.8958 cycles
LLC TOTAL     ACCESS:    1305982  HIT:    1127339  MISS:     178643
LLC LOAD      ACCESS:     183410  HIT:     159154  MISS:      24256
LLC RFO       ACCESS:      84955  HIT:      16935  MISS:      68020
LLC PREFETCH  ACCESS:     901963  HIT:     815970  MISS:      85993
LLC WRITEBACK ACCESS:     135654  HIT:     135280  MISS:        374
LLC PREFETCH  REQUESTED:          0  ISSUED:          0  USEFUL:      47612  USELESS:     112308
LLC AVERAGE MISS LATENCY: 163.746 cycles
Major fault: 0 Minor fault: 5303
CPU 0 L1D next line prefetcher final stats

DRAM Statistics
 CHANNEL 0
 RQ ROW_BUFFER_HIT:      51055  ROW_BUFFER_MISS:     127198
 DBUS_CONGESTED:      95775
 WQ ROW_BUFFER_HIT:      24006  ROW_BUFFER_MISS:      66016  FULL:          0

 AVG_CONGESTED_CYCLE: 6

CPU 0 Branch Prediction Accuracy: 98.6482% MPKI: 3.15508 Average ROB Occupancy at Mispredict: 87.4187

Branch types
NOT_BRANCH: 38329465 76.6589%
BRANCH_DIRECT_JUMP: 510116 1.02023%
BRANCH_INDIRECT: 225730 0.45146%
BRANCH_CONDITIONAL: 8366711 16.7334%
BRANCH_DIRECT_CALL: 600746 1.20149%
BRANCH_INDIRECT_CALL: 682990 1.36598%
BRANCH_RETURN: 1283971 2.56794%
BRANCH_OTHER: 0 0%

