Initialize SIGNATURE TABLE
ST_SET: 1
ST_WAY: 256
ST_TAG_BIT: 16
ST_TAG_MASK: ffff

Initialize PATTERN TABLE
PT_SET: 512
PT_WAY: 4
SIG_DELTA_BIT: 7
C_SIG_BIT: 4
C_DELTA_BIT: 4

Initialize PREFETCH FILTER
FILTER_SET: 1024

*** ChampSim Multicore Out-of-Order Simulator ***

Warmup Instructions: 50000000
Simulation Instructions: 50000000
Number of CPUs: 1
LLC sets: 2048
LLC ways: 16
Off-chip DRAM Size: 4096 MB Channels: 1 Width: 64-bit Data Rate: 3200 MT/s

CPU 0 runs /home/tongjie/ChampSim-master/ipc1_public/server_016.champsimtrace.xz
CPU 0 L1D next line prefetcher
Heartbeat CPU 0 instructions: 10000000 cycles: 3496505 heartbeat IPC: 2.86 cumulative IPC: 2.86 (Simulation time: 0 hr 0 min 28 sec) 
Heartbeat CPU 0 instructions: 20000000 cycles: 6993230 heartbeat IPC: 2.85982 cumulative IPC: 2.85991 (Simulation time: 0 hr 0 min 56 sec) 
Heartbeat CPU 0 instructions: 30000001 cycles: 10485687 heartbeat IPC: 2.86331 cumulative IPC: 2.86104 (Simulation time: 0 hr 1 min 24 sec) 
Heartbeat CPU 0 instructions: 40000000 cycles: 13783817 heartbeat IPC: 3.03202 cumulative IPC: 2.90195 (Simulation time: 0 hr 1 min 37 sec) 
Heartbeat CPU 0 instructions: 50000002 cycles: 17019282 heartbeat IPC: 3.09075 cumulative IPC: 2.93784 (Simulation time: 0 hr 1 min 46 sec) 

Warmup complete CPU 0 instructions: 50000002 cycles: 17019282 (Simulation time: 0 hr 1 min 46 sec) 

Heartbeat CPU 0 instructions: 60000001 cycles: 25259401 heartbeat IPC: 1.21357 cumulative IPC: 1.21357 (Simulation time: 0 hr 1 min 57 sec) 
Heartbeat CPU 0 instructions: 70000001 cycles: 34224696 heartbeat IPC: 1.11541 cumulative IPC: 1.16242 (Simulation time: 0 hr 2 min 25 sec) 
Heartbeat CPU 0 instructions: 80000000 cycles: 43442964 heartbeat IPC: 1.0848 cumulative IPC: 1.13535 (Simulation time: 0 hr 2 min 52 sec) 
Heartbeat CPU 0 instructions: 90000000 cycles: 52145941 heartbeat IPC: 1.14903 cumulative IPC: 1.13874 (Simulation time: 0 hr 3 min 19 sec) 
Heartbeat CPU 0 instructions: 100000000 cycles: 61199417 heartbeat IPC: 1.10455 cumulative IPC: 1.13173 (Simulation time: 0 hr 3 min 47 sec) 
Finished CPU 0 instructions: 50000001 cycles: 44180136 cumulative IPC: 1.13173 (Simulation time: 0 hr 3 min 47 sec) 

ChampSim completed all CPUs

Region of Interest Statistics

CPU 0 cumulative IPC: 1.13173 instructions: 50000001 cycles: 44180136
L1D TOTAL     ACCESS:   19492870  HIT:   18223688  MISS:    1269182
L1D LOAD      ACCESS:    7260017  HIT:    6693753  MISS:     566264
L1D RFO       ACCESS:    5238085  HIT:    5015240  MISS:     222845
L1D PREFETCH  ACCESS:    6994768  HIT:    6514695  MISS:     480073
L1D WRITEBACK ACCESS:          0  HIT:          0  MISS:          0
L1D PREFETCH  REQUESTED:   15164262  ISSUED:   14957707  USEFUL:     236207  USELESS:     638476
L1D AVERAGE MISS LATENCY: 22.4843 cycles
L1I TOTAL     ACCESS:   10348148  HIT:    8211658  MISS:    2136490
L1I LOAD      ACCESS:    9661411  HIT:    8028045  MISS:    1633366
L1I RFO       ACCESS:          0  HIT:          0  MISS:          0
L1I PREFETCH  ACCESS:     686737  HIT:     183613  MISS:     503124
L1I WRITEBACK ACCESS:          0  HIT:          0  MISS:          0
L1I PREFETCH  REQUESTED:    5599722  ISSUED:    5599722  USEFUL:     866728  USELESS:      84756
L1I AVERAGE MISS LATENCY: 13.456 cycles
L2C TOTAL     ACCESS:    5130601  HIT:    4620563  MISS:     510038
L2C LOAD      ACCESS:    1626999  HIT:    1382863  MISS:     244136
L2C RFO       ACCESS:     221242  HIT:     162224  MISS:      59018
L2C PREFETCH  ACCESS:    2854046  HIT:    2648180  MISS:     205866
L2C WRITEBACK ACCESS:     428314  HIT:     427296  MISS:       1018
L2C PREFETCH  REQUESTED:    5432845  ISSUED:    5357250  USEFUL:      44634  USELESS:     310383
L2C AVERAGE MISS LATENCY: 39.8232 cycles
LLC TOTAL     ACCESS:    1540001  HIT:    1503505  MISS:      36496
LLC LOAD      ACCESS:     243934  HIT:     238963  MISS:       4971
LLC RFO       ACCESS:      59018  HIT:      45458  MISS:      13560
LLC PREFETCH  ACCESS:    1141813  HIT:    1124005  MISS:      17808
LLC WRITEBACK ACCESS:      95236  HIT:      95079  MISS:        157
LLC PREFETCH  REQUESTED:          0  ISSUED:          0  USEFUL:       5616  USELESS:      25595
LLC AVERAGE MISS LATENCY: 172.491 cycles
Major fault: 0 Minor fault: 2365
CPU 0 L1D next line prefetcher final stats

DRAM Statistics
 CHANNEL 0
 RQ ROW_BUFFER_HIT:      11863  ROW_BUFFER_MISS:      24473
 DBUS_CONGESTED:      22082
 WQ ROW_BUFFER_HIT:       1652  ROW_BUFFER_MISS:      13971  FULL:          0

 AVG_CONGESTED_CYCLE: 6

CPU 0 Branch Prediction Accuracy: 99.7225% MPKI: 0.50376 Average ROB Occupancy at Mispredict: 71.7901

Branch types
NOT_BRANCH: 40923882 81.8478%
BRANCH_DIRECT_JUMP: 487045 0.97409%
BRANCH_INDIRECT: 169158 0.338316%
BRANCH_CONDITIONAL: 6640823 13.2816%
BRANCH_DIRECT_CALL: 755586 1.51117%
BRANCH_INDIRECT_CALL: 133962 0.267924%
BRANCH_RETURN: 889566 1.77913%
BRANCH_OTHER: 0 0%

