Initialize SIGNATURE TABLE
ST_SET: 1
ST_WAY: 256
ST_TAG_BIT: 16
ST_TAG_MASK: ffff

Initialize PATTERN TABLE
PT_SET: 512
PT_WAY: 4
SIG_DELTA_BIT: 7
C_SIG_BIT: 4
C_DELTA_BIT: 4

Initialize PREFETCH FILTER
FILTER_SET: 1024

*** ChampSim Multicore Out-of-Order Simulator ***

Warmup Instructions: 50000000
Simulation Instructions: 50000000
Number of CPUs: 1
LLC sets: 2048
LLC ways: 16
Off-chip DRAM Size: 4096 MB Channels: 1 Width: 64-bit Data Rate: 3200 MT/s

CPU 0 runs /home/tongjie/ChampSim-master/ipc1_public/server_013.champsimtrace.xz
CPU 0 L1D next line prefetcher
Heartbeat CPU 0 instructions: 10000000 cycles: 3212249 heartbeat IPC: 3.11308 cumulative IPC: 3.11308 (Simulation time: 0 hr 0 min 25 sec) 
Heartbeat CPU 0 instructions: 20000001 cycles: 6413612 heartbeat IPC: 3.12367 cumulative IPC: 3.11837 (Simulation time: 0 hr 0 min 50 sec) 
Heartbeat CPU 0 instructions: 30000002 cycles: 9618163 heartbeat IPC: 3.12056 cumulative IPC: 3.1191 (Simulation time: 0 hr 1 min 15 sec) 
Heartbeat CPU 0 instructions: 40000002 cycles: 12818658 heartbeat IPC: 3.12452 cumulative IPC: 3.12045 (Simulation time: 0 hr 1 min 40 sec) 
Heartbeat CPU 0 instructions: 50000000 cycles: 16020237 heartbeat IPC: 3.12346 cumulative IPC: 3.12105 (Simulation time: 0 hr 2 min 6 sec) 

Warmup complete CPU 0 instructions: 50000004 cycles: 16020238 (Simulation time: 0 hr 2 min 6 sec) 

Heartbeat CPU 0 instructions: 60000000 cycles: 26615855 heartbeat IPC: 0.943786 cumulative IPC: 0.943786 (Simulation time: 0 hr 2 min 31 sec) 
Heartbeat CPU 0 instructions: 70000000 cycles: 37328354 heartbeat IPC: 0.933489 cumulative IPC: 0.938609 (Simulation time: 0 hr 2 min 56 sec) 
Heartbeat CPU 0 instructions: 80000003 cycles: 47531497 heartbeat IPC: 0.98009 cumulative IPC: 0.952041 (Simulation time: 0 hr 3 min 20 sec) 
Heartbeat CPU 0 instructions: 90000003 cycles: 57969580 heartbeat IPC: 0.95803 cumulative IPC: 0.953531 (Simulation time: 0 hr 3 min 44 sec) 
Heartbeat CPU 0 instructions: 100000003 cycles: 68392736 heartbeat IPC: 0.959402 cumulative IPC: 0.9547 (Simulation time: 0 hr 4 min 6 sec) 
Finished CPU 0 instructions: 50000003 cycles: 52372499 cumulative IPC: 0.9547 (Simulation time: 0 hr 4 min 6 sec) 

ChampSim completed all CPUs

Region of Interest Statistics

CPU 0 cumulative IPC: 0.9547 instructions: 50000003 cycles: 52372499
L1D TOTAL     ACCESS:   18411609  HIT:   17343719  MISS:    1067890
L1D LOAD      ACCESS:    6836472  HIT:    6345698  MISS:     490774
L1D RFO       ACCESS:    4968292  HIT:    4887979  MISS:      80313
L1D PREFETCH  ACCESS:    6606845  HIT:    6110042  MISS:     496803
L1D WRITEBACK ACCESS:          0  HIT:          0  MISS:          0
L1D PREFETCH  REQUESTED:   15590576  ISSUED:   15359288  USEFUL:     298948  USELESS:     704625
L1D AVERAGE MISS LATENCY: 40.1219 cycles
L1I TOTAL     ACCESS:    8853808  HIT:    7465779  MISS:    1388029
L1I LOAD      ACCESS:    8523046  HIT:    7328738  MISS:    1194308
L1I RFO       ACCESS:          0  HIT:          0  MISS:          0
L1I PREFETCH  ACCESS:     330762  HIT:     137041  MISS:     193721
L1I WRITEBACK ACCESS:          0  HIT:          0  MISS:          0
L1I PREFETCH  REQUESTED:    3649650  ISSUED:    3649650  USEFUL:     377041  USELESS:      50294
L1I AVERAGE MISS LATENCY: 24.9273 cycles
L2C TOTAL     ACCESS:    3450768  HIT:    2170204  MISS:    1280564
L2C LOAD      ACCESS:    1350939  HIT:     639258  MISS:     711681
L2C RFO       ACCESS:      78952  HIT:      32579  MISS:      46373
L2C PREFETCH  ACCESS:    1745018  HIT:    1223522  MISS:     521496
L2C WRITEBACK ACCESS:     275859  HIT:     274845  MISS:       1014
L2C PREFETCH  REQUESTED:    5625343  ISSUED:    5598565  USEFUL:     132225  USELESS:     856696
L2C AVERAGE MISS LATENCY: 41.4661 cycles
LLC TOTAL     ACCESS:    2836789  HIT:    2657010  MISS:     179779
LLC LOAD      ACCESS:     701251  HIT:     663412  MISS:      37839
LLC RFO       ACCESS:      46370  HIT:      36306  MISS:      10064
LLC PREFETCH  ACCESS:    1922631  HIT:    1791209  MISS:     131422
LLC WRITEBACK ACCESS:     166537  HIT:     166083  MISS:        454
LLC PREFETCH  REQUESTED:          0  ISSUED:          0  USEFUL:      54206  USELESS:     204029
LLC AVERAGE MISS LATENCY: 163.367 cycles
Major fault: 0 Minor fault: 6200
CPU 0 L1D next line prefetcher final stats

DRAM Statistics
 CHANNEL 0
 RQ ROW_BUFFER_HIT:      30367  ROW_BUFFER_MISS:     148954
 DBUS_CONGESTED:      70095
 WQ ROW_BUFFER_HIT:      11719  ROW_BUFFER_MISS:      52569  FULL:          0

 AVG_CONGESTED_CYCLE: 5

CPU 0 Branch Prediction Accuracy: 99.4114% MPKI: 1.0933 Average ROB Occupancy at Mispredict: 69.3693

Branch types
NOT_BRANCH: 40713101 81.4262%
BRANCH_DIRECT_JUMP: 463697 0.927394%
BRANCH_INDIRECT: 146542 0.293084%
BRANCH_CONDITIONAL: 6981932 13.9639%
BRANCH_DIRECT_CALL: 665003 1.33001%
BRANCH_INDIRECT_CALL: 165150 0.3303%
BRANCH_RETURN: 864309 1.72862%
BRANCH_OTHER: 0 0%

