Initialize SIGNATURE TABLE
ST_SET: 1
ST_WAY: 256
ST_TAG_BIT: 16
ST_TAG_MASK: ffff

Initialize PATTERN TABLE
PT_SET: 512
PT_WAY: 4
SIG_DELTA_BIT: 7
C_SIG_BIT: 4
C_DELTA_BIT: 4

Initialize PREFETCH FILTER
FILTER_SET: 1024

*** ChampSim Multicore Out-of-Order Simulator ***

Warmup Instructions: 50000000
Simulation Instructions: 50000000
Number of CPUs: 1
LLC sets: 2048
LLC ways: 16
Off-chip DRAM Size: 4096 MB Channels: 1 Width: 64-bit Data Rate: 3200 MT/s

CPU 0 runs /home/tongjie/ChampSim-master/ipc1_public/server_031.champsimtrace.xz
CPU 0 L1D next line prefetcher
Heartbeat CPU 0 instructions: 10000003 cycles: 3517396 heartbeat IPC: 2.84301 cumulative IPC: 2.84301 (Simulation time: 0 hr 0 min 28 sec) 
Heartbeat CPU 0 instructions: 20000002 cycles: 7032779 heartbeat IPC: 2.84464 cumulative IPC: 2.84383 (Simulation time: 0 hr 0 min 56 sec) 
Heartbeat CPU 0 instructions: 30000002 cycles: 10549033 heartbeat IPC: 2.84394 cumulative IPC: 2.84386 (Simulation time: 0 hr 1 min 25 sec) 
Heartbeat CPU 0 instructions: 40000003 cycles: 14060815 heartbeat IPC: 2.84756 cumulative IPC: 2.84479 (Simulation time: 0 hr 1 min 53 sec) 
Heartbeat CPU 0 instructions: 50000001 cycles: 17575167 heartbeat IPC: 2.84547 cumulative IPC: 2.84492 (Simulation time: 0 hr 2 min 21 sec) 

Warmup complete CPU 0 instructions: 50000001 cycles: 17575167 (Simulation time: 0 hr 2 min 21 sec) 

Heartbeat CPU 0 instructions: 60000001 cycles: 26792661 heartbeat IPC: 1.08489 cumulative IPC: 1.08489 (Simulation time: 0 hr 2 min 49 sec) 
Heartbeat CPU 0 instructions: 70000002 cycles: 36140361 heartbeat IPC: 1.06978 cumulative IPC: 1.07728 (Simulation time: 0 hr 3 min 20 sec) 
*** Reached end of trace for Core: 0 Repeating trace: /home/tongjie/ChampSim-master/ipc1_public/server_031.champsimtrace.xz
Heartbeat CPU 0 instructions: 80000000 cycles: 45281744 heartbeat IPC: 1.09393 cumulative IPC: 1.08278 (Simulation time: 0 hr 3 min 49 sec) 
Heartbeat CPU 0 instructions: 90000001 cycles: 54407010 heartbeat IPC: 1.09586 cumulative IPC: 1.08602 (Simulation time: 0 hr 4 min 16 sec) 
Heartbeat CPU 0 instructions: 100000000 cycles: 63493325 heartbeat IPC: 1.10056 cumulative IPC: 1.08889 (Simulation time: 0 hr 4 min 44 sec) 
Finished CPU 0 instructions: 50000000 cycles: 45918160 cumulative IPC: 1.08889 (Simulation time: 0 hr 4 min 44 sec) 

ChampSim completed all CPUs

Region of Interest Statistics

CPU 0 cumulative IPC: 1.08889 instructions: 50000000 cycles: 45918160
L1D TOTAL     ACCESS:   21118357  HIT:   19212140  MISS:    1906217
L1D LOAD      ACCESS:    7527746  HIT:    6663051  MISS:     864695
L1D RFO       ACCESS:    6375444  HIT:    6082766  MISS:     292678
L1D PREFETCH  ACCESS:    7215167  HIT:    6466323  MISS:     748844
L1D WRITEBACK ACCESS:          0  HIT:          0  MISS:          0
L1D PREFETCH  REQUESTED:   16861167  ISSUED:   16626176  USEFUL:     400910  USELESS:    1138527
L1D AVERAGE MISS LATENCY: 21.746 cycles
L1I TOTAL     ACCESS:   10510750  HIT:    7483557  MISS:    3027193
L1I LOAD      ACCESS:    9247759  HIT:    7150762  MISS:    2096997
L1I RFO       ACCESS:          0  HIT:          0  MISS:          0
L1I PREFETCH  ACCESS:    1262991  HIT:     332795  MISS:     930196
L1I WRITEBACK ACCESS:          0  HIT:          0  MISS:          0
L1I PREFETCH  REQUESTED:   12770072  ISSUED:   12770072  USEFUL:    1939551  USELESS:      42431
L1I AVERAGE MISS LATENCY: 10.152 cycles
L2C TOTAL     ACCESS:    7179663  HIT:    6588236  MISS:     591427
L2C LOAD      ACCESS:    1749643  HIT:    1534102  MISS:     215541
L2C RFO       ACCESS:     289118  HIT:     250843  MISS:      38275
L2C PREFETCH  ACCESS:    4524131  HIT:    4187060  MISS:     337071
L2C WRITEBACK ACCESS:     616771  HIT:     616231  MISS:        540
L2C PREFETCH  REQUESTED:    8475861  ISSUED:    8435592  USEFUL:      42082  USELESS:     576460
L2C AVERAGE MISS LATENCY: 44.0114 cycles
LLC TOTAL     ACCESS:    2046273  HIT:    1967517  MISS:      78756
LLC LOAD      ACCESS:     215453  HIT:     195907  MISS:      19546
LLC RFO       ACCESS:      38274  HIT:      34049  MISS:       4225
LLC PREFETCH  ACCESS:    1722630  HIT:    1668212  MISS:      54418
LLC WRITEBACK ACCESS:      69916  HIT:      69349  MISS:        567
LLC PREFETCH  REQUESTED:          0  ISSUED:          0  USEFUL:       7066  USELESS:      86850
LLC AVERAGE MISS LATENCY: 156.505 cycles
Major fault: 0 Minor fault: 6041
CPU 0 L1D next line prefetcher final stats

DRAM Statistics
 CHANNEL 0
 RQ ROW_BUFFER_HIT:      21730  ROW_BUFFER_MISS:      56456
 DBUS_CONGESTED:      29504
 WQ ROW_BUFFER_HIT:        816  ROW_BUFFER_MISS:       5116  FULL:          0

 AVG_CONGESTED_CYCLE: 4

CPU 0 Branch Prediction Accuracy: 99.6894% MPKI: 0.58048 Average ROB Occupancy at Mispredict: 104.281

Branch types
NOT_BRANCH: 40655618 81.3112%
BRANCH_DIRECT_JUMP: 546484 1.09297%
BRANCH_INDIRECT: 172433 0.344866%
BRANCH_CONDITIONAL: 6207576 12.4152%
BRANCH_DIRECT_CALL: 1018498 2.037%
BRANCH_INDIRECT_CALL: 190373 0.380746%
BRANCH_RETURN: 1208857 2.41771%
BRANCH_OTHER: 0 0%

