Initialize SIGNATURE TABLE
ST_SET: 1
ST_WAY: 256
ST_TAG_BIT: 16
ST_TAG_MASK: ffff

Initialize PATTERN TABLE
PT_SET: 512
PT_WAY: 4
SIG_DELTA_BIT: 7
C_SIG_BIT: 4
C_DELTA_BIT: 4

Initialize PREFETCH FILTER
FILTER_SET: 1024

*** ChampSim Multicore Out-of-Order Simulator ***

Warmup Instructions: 50000000
Simulation Instructions: 50000000
Number of CPUs: 1
LLC sets: 2048
LLC ways: 16
Off-chip DRAM Size: 4096 MB Channels: 1 Width: 64-bit Data Rate: 3200 MT/s

CPU 0 runs /home/tongjie/ChampSim-master/ipc1_public/server_026.champsimtrace.xz
CPU 0 L1D next line prefetcher
Heartbeat CPU 0 instructions: 10000000 cycles: 3522008 heartbeat IPC: 2.83929 cumulative IPC: 2.83929 (Simulation time: 0 hr 0 min 29 sec) 
Heartbeat CPU 0 instructions: 20000002 cycles: 7049256 heartbeat IPC: 2.83507 cumulative IPC: 2.83718 (Simulation time: 0 hr 0 min 59 sec) 
Heartbeat CPU 0 instructions: 30000000 cycles: 10567148 heartbeat IPC: 2.84261 cumulative IPC: 2.83899 (Simulation time: 0 hr 1 min 27 sec) 
Heartbeat CPU 0 instructions: 40000003 cycles: 14093296 heartbeat IPC: 2.83596 cumulative IPC: 2.83823 (Simulation time: 0 hr 1 min 56 sec) 
Heartbeat CPU 0 instructions: 50000000 cycles: 17612836 heartbeat IPC: 2.84128 cumulative IPC: 2.83884 (Simulation time: 0 hr 2 min 24 sec) 

Warmup complete CPU 0 instructions: 50000004 cycles: 17612837 (Simulation time: 0 hr 2 min 24 sec) 

*** Reached end of trace for Core: 0 Repeating trace: /home/tongjie/ChampSim-master/ipc1_public/server_026.champsimtrace.xz
Heartbeat CPU 0 instructions: 60000000 cycles: 26739417 heartbeat IPC: 1.0957 cumulative IPC: 1.0957 (Simulation time: 0 hr 2 min 51 sec) 
Heartbeat CPU 0 instructions: 70000001 cycles: 35751566 heartbeat IPC: 1.10961 cumulative IPC: 1.10261 (Simulation time: 0 hr 3 min 19 sec) 
Heartbeat CPU 0 instructions: 80000003 cycles: 44904723 heartbeat IPC: 1.09252 cumulative IPC: 1.09923 (Simulation time: 0 hr 3 min 46 sec) 
Heartbeat CPU 0 instructions: 90000002 cycles: 53953332 heartbeat IPC: 1.10514 cumulative IPC: 1.1007 (Simulation time: 0 hr 4 min 13 sec) 
Heartbeat CPU 0 instructions: 100000000 cycles: 63087200 heartbeat IPC: 1.09483 cumulative IPC: 1.09952 (Simulation time: 0 hr 4 min 41 sec) 
Finished CPU 0 instructions: 50000000 cycles: 45474364 cumulative IPC: 1.09952 (Simulation time: 0 hr 4 min 41 sec) 

ChampSim completed all CPUs

Region of Interest Statistics

CPU 0 cumulative IPC: 1.09952 instructions: 50000000 cycles: 45474364
L1D TOTAL     ACCESS:   21610467  HIT:   19964037  MISS:    1646430
L1D LOAD      ACCESS:    7819347  HIT:    7097463  MISS:     721884
L1D RFO       ACCESS:    6291978  HIT:    6004358  MISS:     287620
L1D PREFETCH  ACCESS:    7499142  HIT:    6862216  MISS:     636926
L1D WRITEBACK ACCESS:          0  HIT:          0  MISS:          0
L1D PREFETCH  REQUESTED:   17366274  ISSUED:   17047047  USEFUL:     346367  USELESS:     955405
L1D AVERAGE MISS LATENCY: 23.0918 cycles
L1I TOTAL     ACCESS:   10190607  HIT:    7385674  MISS:    2804933
L1I LOAD      ACCESS:    9153695  HIT:    7095391  MISS:    2058304
L1I RFO       ACCESS:          0  HIT:          0  MISS:          0
L1I PREFETCH  ACCESS:    1036912  HIT:     290283  MISS:     746629
L1I WRITEBACK ACCESS:          0  HIT:          0  MISS:          0
L1I PREFETCH  REQUESTED:    9973454  ISSUED:    9973454  USEFUL:    1475302  USELESS:      93273
L1I AVERAGE MISS LATENCY: 12.5158 cycles
L2C TOTAL     ACCESS:    6590515  HIT:    5838744  MISS:     751771
L2C LOAD      ACCESS:    1861949  HIT:    1511850  MISS:     350099
L2C RFO       ACCESS:     285004  HIT:     192494  MISS:      92510
L2C PREFETCH  ACCESS:    3882409  HIT:    3576172  MISS:     306237
L2C WRITEBACK ACCESS:     561153  HIT:     558228  MISS:       2925
L2C PREFETCH  REQUESTED:    7848321  ISSUED:    7788541  USEFUL:      85711  USELESS:     486542
L2C AVERAGE MISS LATENCY: 37.2064 cycles
LLC TOTAL     ACCESS:    2244129  HIT:    2209351  MISS:      34778
LLC LOAD      ACCESS:     349880  HIT:     345738  MISS:       4142
LLC RFO       ACCESS:      92504  HIT:      78059  MISS:      14445
LLC PREFETCH  ACCESS:    1647369  HIT:    1631394  MISS:      15975
LLC WRITEBACK ACCESS:     154376  HIT:     154160  MISS:        216
LLC PREFETCH  REQUESTED:          0  ISSUED:          0  USEFUL:       4831  USELESS:      22799
LLC AVERAGE MISS LATENCY: 185.287 cycles
Major fault: 0 Minor fault: 2165
CPU 0 L1D next line prefetcher final stats

DRAM Statistics
 CHANNEL 0
 RQ ROW_BUFFER_HIT:      12451  ROW_BUFFER_MISS:      22108
 DBUS_CONGESTED:      23473
 WQ ROW_BUFFER_HIT:       1659  ROW_BUFFER_MISS:      14144  FULL:          0

 AVG_CONGESTED_CYCLE: 6

CPU 0 Branch Prediction Accuracy: 99.822% MPKI: 0.32584 Average ROB Occupancy at Mispredict: 91.1213

Branch types
NOT_BRANCH: 40848537 81.6971%
BRANCH_DIRECT_JUMP: 522045 1.04409%
BRANCH_INDIRECT: 204034 0.408068%
BRANCH_CONDITIONAL: 6212953 12.4259%
BRANCH_DIRECT_CALL: 932389 1.86478%
BRANCH_INDIRECT_CALL: 173764 0.347528%
BRANCH_RETURN: 1106150 2.2123%
BRANCH_OTHER: 0 0%

