Initialize SIGNATURE TABLE
ST_SET: 1
ST_WAY: 256
ST_TAG_BIT: 16
ST_TAG_MASK: ffff

Initialize PATTERN TABLE
PT_SET: 512
PT_WAY: 4
SIG_DELTA_BIT: 7
C_SIG_BIT: 4
C_DELTA_BIT: 4

Initialize PREFETCH FILTER
FILTER_SET: 1024

*** ChampSim Multicore Out-of-Order Simulator ***

Warmup Instructions: 50000000
Simulation Instructions: 50000000
Number of CPUs: 1
LLC sets: 2048
LLC ways: 16
Off-chip DRAM Size: 4096 MB Channels: 1 Width: 64-bit Data Rate: 3200 MT/s

CPU 0 runs /home/tongjie/ChampSim-master/ipc1_public/spec_gcc_003.champsimtrace.xz
CPU 0 L1D next line prefetcher
Heartbeat CPU 0 instructions: 10000001 cycles: 3486760 heartbeat IPC: 2.86799 cumulative IPC: 2.86799 (Simulation time: 0 hr 0 min 19 sec) 
Heartbeat CPU 0 instructions: 20000000 cycles: 6963893 heartbeat IPC: 2.87593 cumulative IPC: 2.87196 (Simulation time: 0 hr 0 min 37 sec) 
Heartbeat CPU 0 instructions: 30000002 cycles: 10407339 heartbeat IPC: 2.90407 cumulative IPC: 2.88258 (Simulation time: 0 hr 0 min 54 sec) 
Heartbeat CPU 0 instructions: 40000000 cycles: 13875219 heartbeat IPC: 2.88361 cumulative IPC: 2.88284 (Simulation time: 0 hr 1 min 12 sec) 
Heartbeat CPU 0 instructions: 50000001 cycles: 17188029 heartbeat IPC: 3.01859 cumulative IPC: 2.909 (Simulation time: 0 hr 1 min 30 sec) 

Warmup complete CPU 0 instructions: 50000001 cycles: 17188029 (Simulation time: 0 hr 1 min 30 sec) 

Heartbeat CPU 0 instructions: 60000000 cycles: 58491220 heartbeat IPC: 0.242112 cumulative IPC: 0.242112 (Simulation time: 0 hr 2 min 16 sec) 
Heartbeat CPU 0 instructions: 70000000 cycles: 102839394 heartbeat IPC: 0.225488 cumulative IPC: 0.233505 (Simulation time: 0 hr 3 min 4 sec) 
Heartbeat CPU 0 instructions: 80000002 cycles: 147912608 heartbeat IPC: 0.221861 cumulative IPC: 0.22949 (Simulation time: 0 hr 3 min 50 sec) 
Heartbeat CPU 0 instructions: 90000002 cycles: 186071380 heartbeat IPC: 0.262063 cumulative IPC: 0.23685 (Simulation time: 0 hr 4 min 30 sec) 
Heartbeat CPU 0 instructions: 100000001 cycles: 233545999 heartbeat IPC: 0.210639 cumulative IPC: 0.231098 (Simulation time: 0 hr 5 min 17 sec) 
Finished CPU 0 instructions: 50000000 cycles: 216357970 cumulative IPC: 0.231098 (Simulation time: 0 hr 5 min 17 sec) 

ChampSim completed all CPUs

Region of Interest Statistics

CPU 0 cumulative IPC: 0.231098 instructions: 50000000 cycles: 216357970
L1D TOTAL     ACCESS:   17337068  HIT:   11612457  MISS:    5724611
L1D LOAD      ACCESS:    4790887  HIT:    4409563  MISS:     381324
L1D RFO       ACCESS:    8238702  HIT:    3186693  MISS:    5052009
L1D PREFETCH  ACCESS:    4307479  HIT:    4016201  MISS:     291278
L1D WRITEBACK ACCESS:          0  HIT:          0  MISS:          0
L1D PREFETCH  REQUESTED:   10857344  ISSUED:   10706875  USEFUL:     392766  USELESS:     272052
L1D AVERAGE MISS LATENCY: 496.915 cycles
L1I TOTAL     ACCESS:   11596078  HIT:   10873603  MISS:     722475
L1I LOAD      ACCESS:   11247658  HIT:   10725257  MISS:     522401
L1I RFO       ACCESS:          0  HIT:          0  MISS:          0
L1I PREFETCH  ACCESS:     348420  HIT:     148346  MISS:     200074
L1I WRITEBACK ACCESS:          0  HIT:          0  MISS:          0
L1I PREFETCH  REQUESTED:    2943020  ISSUED:    2943020  USEFUL:     394143  USELESS:      51351
L1I AVERAGE MISS LATENCY: 38.3607 cycles
L2C TOTAL     ACCESS:   11878007  HIT:    5887078  MISS:    5990929
L2C LOAD      ACCESS:     504424  HIT:     213956  MISS:     290468
L2C RFO       ACCESS:    5050156  HIT:       6554  MISS:    5043602
L2C PREFETCH  ACCESS:    1165464  HIT:     508711  MISS:     656753
L2C WRITEBACK ACCESS:    5157963  HIT:    5157857  MISS:        106
L2C PREFETCH  REQUESTED:    4058395  ISSUED:    4057368  USEFUL:     117922  USELESS:    1412188
L2C AVERAGE MISS LATENCY: 469.528 cycles
LLC TOTAL     ACCESS:   11838889  HIT:    7100757  MISS:    4738132
LLC LOAD      ACCESS:     290426  HIT:     214381  MISS:      76045
LLC RFO       ACCESS:    5043603  HIT:     649248  MISS:    4394355
LLC PREFETCH  ACCESS:    1370833  HIT:    1103101  MISS:     267732
LLC WRITEBACK ACCESS:    5134027  HIT:    5134027  MISS:          0
LLC PREFETCH  REQUESTED:          0  ISSUED:          0  USEFUL:      84355  USELESS:     452123
LLC AVERAGE MISS LATENCY: 563.618 cycles
Major fault: 0 Minor fault: 2817
CPU 0 L1D next line prefetcher final stats

DRAM Statistics
 CHANNEL 0
 RQ ROW_BUFFER_HIT:    1437115  ROW_BUFFER_MISS:    3300971
 DBUS_CONGESTED:    8147485
 WQ ROW_BUFFER_HIT:    1201530  ROW_BUFFER_MISS:    3221954  FULL:          0

 AVG_CONGESTED_CYCLE: 6

CPU 0 Branch Prediction Accuracy: 99.665% MPKI: 0.78342 Average ROB Occupancy at Mispredict: 83.0737

Branch types
NOT_BRANCH: 38305858 76.6117%
BRANCH_DIRECT_JUMP: 384281 0.768562%
BRANCH_INDIRECT: 71949 0.143898%
BRANCH_CONDITIONAL: 9879825 19.7597%
BRANCH_DIRECT_CALL: 650586 1.30117%
BRANCH_INDIRECT_CALL: 28456 0.056912%
BRANCH_RETURN: 679046 1.35809%
BRANCH_OTHER: 0 0%

