Initialize SIGNATURE TABLE
ST_SET: 1
ST_WAY: 256
ST_TAG_BIT: 16
ST_TAG_MASK: ffff

Initialize PATTERN TABLE
PT_SET: 512
PT_WAY: 4
SIG_DELTA_BIT: 7
C_SIG_BIT: 4
C_DELTA_BIT: 4

Initialize PREFETCH FILTER
FILTER_SET: 1024

*** ChampSim Multicore Out-of-Order Simulator ***

Warmup Instructions: 50000000
Simulation Instructions: 50000000
Number of CPUs: 1
LLC sets: 2048
LLC ways: 16
Off-chip DRAM Size: 4096 MB Channels: 1 Width: 64-bit Data Rate: 3200 MT/s

CPU 0 runs /home/tongjie/ChampSim-master/ipc1_public/spec_gobmk_001.champsimtrace.xz
CPU 0 L1D next line prefetcher
Heartbeat CPU 0 instructions: 10000003 cycles: 3506644 heartbeat IPC: 2.85173 cumulative IPC: 2.85173 (Simulation time: 0 hr 0 min 21 sec) 
Heartbeat CPU 0 instructions: 20000002 cycles: 6986670 heartbeat IPC: 2.87354 cumulative IPC: 2.86259 (Simulation time: 0 hr 0 min 42 sec) 
Heartbeat CPU 0 instructions: 30000002 cycles: 10505267 heartbeat IPC: 2.84204 cumulative IPC: 2.85571 (Simulation time: 0 hr 1 min 2 sec) 
Heartbeat CPU 0 instructions: 40000001 cycles: 14024131 heartbeat IPC: 2.84183 cumulative IPC: 2.85223 (Simulation time: 0 hr 1 min 23 sec) 
Heartbeat CPU 0 instructions: 50000001 cycles: 17563896 heartbeat IPC: 2.82505 cumulative IPC: 2.84675 (Simulation time: 0 hr 1 min 43 sec) 

Warmup complete CPU 0 instructions: 50000001 cycles: 17563896 (Simulation time: 0 hr 1 min 43 sec) 

Heartbeat CPU 0 instructions: 60000000 cycles: 26832929 heartbeat IPC: 1.07886 cumulative IPC: 1.07886 (Simulation time: 0 hr 2 min 2 sec) 
Heartbeat CPU 0 instructions: 70000002 cycles: 35816939 heartbeat IPC: 1.11309 cumulative IPC: 1.09571 (Simulation time: 0 hr 2 min 20 sec) 
Heartbeat CPU 0 instructions: 80000003 cycles: 45139759 heartbeat IPC: 1.07264 cumulative IPC: 1.08791 (Simulation time: 0 hr 2 min 36 sec) 
Heartbeat CPU 0 instructions: 90000001 cycles: 54090837 heartbeat IPC: 1.11718 cumulative IPC: 1.09508 (Simulation time: 0 hr 2 min 52 sec) 
Heartbeat CPU 0 instructions: 100000003 cycles: 63396164 heartbeat IPC: 1.07465 cumulative IPC: 1.09093 (Simulation time: 0 hr 3 min 8 sec) 
Finished CPU 0 instructions: 50000002 cycles: 45832268 cumulative IPC: 1.09093 (Simulation time: 0 hr 3 min 8 sec) 

ChampSim completed all CPUs

Region of Interest Statistics

CPU 0 cumulative IPC: 1.09093 instructions: 50000002 cycles: 45832268
L1D TOTAL     ACCESS:   18200269  HIT:   17820633  MISS:     379636
L1D LOAD      ACCESS:    7311236  HIT:    7176199  MISS:     135037
L1D RFO       ACCESS:    3713056  HIT:    3608597  MISS:     104459
L1D PREFETCH  ACCESS:    7175977  HIT:    7035837  MISS:     140140
L1D WRITEBACK ACCESS:          0  HIT:          0  MISS:          0
L1D PREFETCH  REQUESTED:   15771109  ISSUED:   15571314  USEFUL:     120398  USELESS:     203412
L1D AVERAGE MISS LATENCY: 33.4957 cycles
L1I TOTAL     ACCESS:    9211762  HIT:    8825802  MISS:     385960
L1I LOAD      ACCESS:    8961125  HIT:    8685328  MISS:     275797
L1I RFO       ACCESS:          0  HIT:          0  MISS:          0
L1I PREFETCH  ACCESS:     250637  HIT:     140474  MISS:     110163
L1I WRITEBACK ACCESS:          0  HIT:          0  MISS:          0
L1I PREFETCH  REQUESTED:    1139148  ISSUED:    1139148  USEFUL:     159151  USELESS:      52326
L1I AVERAGE MISS LATENCY: 14.3417 cycles
L2C TOTAL     ACCESS:    1221664  HIT:    1098704  MISS:     122960
L2C LOAD      ACCESS:     359759  HIT:     317160  MISS:      42599
L2C RFO       ACCESS:     104168  HIT:      70438  MISS:      33730
L2C PREFETCH  ACCESS:     618421  HIT:     571843  MISS:      46578
L2C WRITEBACK ACCESS:     139316  HIT:     139263  MISS:         53
L2C PREFETCH  REQUESTED:    1077371  ISSUED:    1072234  USEFUL:      10791  USELESS:     100964
L2C AVERAGE MISS LATENCY: 65.3597 cycles
LLC TOTAL     ACCESS:     258502  HIT:     223217  MISS:      35285
LLC LOAD      ACCESS:      42596  HIT:      34039  MISS:       8557
LLC RFO       ACCESS:      33730  HIT:      27022  MISS:       6708
LLC PREFETCH  ACCESS:     137726  HIT:     117993  MISS:      19733
LLC WRITEBACK ACCESS:      44450  HIT:      44163  MISS:        287
LLC PREFETCH  REQUESTED:          0  ISSUED:          0  USEFUL:       7986  USELESS:      37022
LLC AVERAGE MISS LATENCY: 179.237 cycles
Major fault: 0 Minor fault: 4156
CPU 0 L1D next line prefetcher final stats

DRAM Statistics
 CHANNEL 0
 RQ ROW_BUFFER_HIT:       4561  ROW_BUFFER_MISS:      30437
 DBUS_CONGESTED:      20191
 WQ ROW_BUFFER_HIT:       1416  ROW_BUFFER_MISS:      14532  FULL:          0

 AVG_CONGESTED_CYCLE: 4

CPU 0 Branch Prediction Accuracy: 94.7729% MPKI: 9.72684 Average ROB Occupancy at Mispredict: 49.3732

Branch types
NOT_BRANCH: 40695396 81.3908%
BRANCH_DIRECT_JUMP: 422107 0.844214%
BRANCH_INDIRECT: 65 0.00013%
BRANCH_CONDITIONAL: 8105005 16.21%
BRANCH_DIRECT_CALL: 374913 0.749826%
BRANCH_INDIRECT_CALL: 13657 0.027314%
BRANCH_RETURN: 388556 0.777112%
BRANCH_OTHER: 0 0%

