Initialize SIGNATURE TABLE
ST_SET: 1
ST_WAY: 256
ST_TAG_BIT: 16
ST_TAG_MASK: ffff

Initialize PATTERN TABLE
PT_SET: 512
PT_WAY: 4
SIG_DELTA_BIT: 7
C_SIG_BIT: 4
C_DELTA_BIT: 4

Initialize PREFETCH FILTER
FILTER_SET: 1024

*** ChampSim Multicore Out-of-Order Simulator ***

Warmup Instructions: 50000000
Simulation Instructions: 50000000
Number of CPUs: 1
LLC sets: 2048
LLC ways: 16
Off-chip DRAM Size: 4096 MB Channels: 1 Width: 64-bit Data Rate: 3200 MT/s

CPU 0 runs /home/tongjie/ChampSim-master/ipc1_public/spec_x264_001.champsimtrace.xz
CPU 0 L1D next line prefetcher
Heartbeat CPU 0 instructions: 10000002 cycles: 3059328 heartbeat IPC: 3.26869 cumulative IPC: 3.26869 (Simulation time: 0 hr 0 min 17 sec) 
Heartbeat CPU 0 instructions: 20000002 cycles: 6108766 heartbeat IPC: 3.27929 cumulative IPC: 3.27398 (Simulation time: 0 hr 0 min 33 sec) 
Heartbeat CPU 0 instructions: 30000002 cycles: 9143897 heartbeat IPC: 3.29475 cumulative IPC: 3.28088 (Simulation time: 0 hr 0 min 50 sec) 
Heartbeat CPU 0 instructions: 40000000 cycles: 12187783 heartbeat IPC: 3.28527 cumulative IPC: 3.28198 (Simulation time: 0 hr 1 min 6 sec) 
Heartbeat CPU 0 instructions: 50000000 cycles: 15230103 heartbeat IPC: 3.28697 cumulative IPC: 3.28297 (Simulation time: 0 hr 1 min 22 sec) 

Warmup complete CPU 0 instructions: 50000004 cycles: 15230104 (Simulation time: 0 hr 1 min 22 sec) 

Heartbeat CPU 0 instructions: 60000002 cycles: 21398781 heartbeat IPC: 1.62109 cumulative IPC: 1.62109 (Simulation time: 0 hr 1 min 34 sec) 
Heartbeat CPU 0 instructions: 70000000 cycles: 27553827 heartbeat IPC: 1.62468 cumulative IPC: 1.62289 (Simulation time: 0 hr 1 min 45 sec) 
Heartbeat CPU 0 instructions: 80000003 cycles: 33870619 heartbeat IPC: 1.58308 cumulative IPC: 1.6094 (Simulation time: 0 hr 1 min 57 sec) 
Heartbeat CPU 0 instructions: 90000002 cycles: 40159265 heartbeat IPC: 1.59017 cumulative IPC: 1.60455 (Simulation time: 0 hr 2 min 9 sec) 
Heartbeat CPU 0 instructions: 100000002 cycles: 46309869 heartbeat IPC: 1.62586 cumulative IPC: 1.60876 (Simulation time: 0 hr 2 min 20 sec) 
Finished CPU 0 instructions: 50000002 cycles: 31079766 cumulative IPC: 1.60876 (Simulation time: 0 hr 2 min 20 sec) 

ChampSim completed all CPUs

Region of Interest Statistics

CPU 0 cumulative IPC: 1.60876 instructions: 50000002 cycles: 31079766
L1D TOTAL     ACCESS:   13113179  HIT:   12949896  MISS:     163283
L1D LOAD      ACCESS:    5161715  HIT:    5106563  MISS:      55152
L1D RFO       ACCESS:    2885046  HIT:    2850465  MISS:      34581
L1D PREFETCH  ACCESS:    5066418  HIT:    4992868  MISS:      73550
L1D WRITEBACK ACCESS:          0  HIT:          0  MISS:          0
L1D PREFETCH  REQUESTED:   12558845  ISSUED:   12374097  USEFUL:      54108  USELESS:      94602
L1D AVERAGE MISS LATENCY: 40.1977 cycles
L1I TOTAL     ACCESS:    8163264  HIT:    7889978  MISS:     273286
L1I LOAD      ACCESS:    8000630  HIT:    7829944  MISS:     170686
L1I RFO       ACCESS:          0  HIT:          0  MISS:          0
L1I PREFETCH  ACCESS:     162634  HIT:      60034  MISS:     102600
L1I WRITEBACK ACCESS:          0  HIT:          0  MISS:          0
L1I PREFETCH  REQUESTED:    1011640  ISSUED:    1011640  USEFUL:     195949  USELESS:      12116
L1I AVERAGE MISS LATENCY: 11.5968 cycles
L2C TOTAL     ACCESS:     699352  HIT:     660786  MISS:      38566
L2C LOAD      ACCESS:     173775  HIT:     166828  MISS:       6947
L2C RFO       ACCESS:      34430  HIT:      22370  MISS:      12060
L2C PREFETCH  ACCESS:     447614  HIT:     428129  MISS:      19485
L2C WRITEBACK ACCESS:      43533  HIT:      43459  MISS:         74
L2C PREFETCH  REQUESTED:     736608  ISSUED:     736220  USEFUL:      18238  USELESS:      21710
L2C AVERAGE MISS LATENCY: 107.499 cycles
LLC TOTAL     ACCESS:     125158  HIT:      96020  MISS:      29138
LLC LOAD      ACCESS:       6932  HIT:       4747  MISS:       2185
LLC RFO       ACCESS:      12060  HIT:        447  MISS:      11613
LLC PREFETCH  ACCESS:      92601  HIT:      77334  MISS:      15267
LLC WRITEBACK ACCESS:      13565  HIT:      13492  MISS:         73
LLC PREFETCH  REQUESTED:          0  ISSUED:          0  USEFUL:       3966  USELESS:      16199
LLC AVERAGE MISS LATENCY: 163.955 cycles
Major fault: 0 Minor fault: 1284
CPU 0 L1D next line prefetcher final stats

DRAM Statistics
 CHANNEL 0
 RQ ROW_BUFFER_HIT:       8965  ROW_BUFFER_MISS:      20100
 DBUS_CONGESTED:      12079
 WQ ROW_BUFFER_HIT:       2767  ROW_BUFFER_MISS:      10140  FULL:          0

 AVG_CONGESTED_CYCLE: 6

CPU 0 Branch Prediction Accuracy: 97.1633% MPKI: 1.73704 Average ROB Occupancy at Mispredict: 32.4647

Branch types
NOT_BRANCH: 46937910 93.8758%
BRANCH_DIRECT_JUMP: 170816 0.341632%
BRANCH_INDIRECT: 0 0%
BRANCH_CONDITIONAL: 2532772 5.06554%
BRANCH_DIRECT_CALL: 114227 0.228454%
BRANCH_INDIRECT_CALL: 64863 0.129726%
BRANCH_RETURN: 179089 0.358178%
BRANCH_OTHER: 0 0%

