Initialize SIGNATURE TABLE
ST_SET: 1
ST_WAY: 256
ST_TAG_BIT: 16
ST_TAG_MASK: ffff

Initialize PATTERN TABLE
PT_SET: 512
PT_WAY: 4
SIG_DELTA_BIT: 7
C_SIG_BIT: 4
C_DELTA_BIT: 4

Initialize PREFETCH FILTER
FILTER_SET: 1024

*** ChampSim Multicore Out-of-Order Simulator ***

Warmup Instructions: 50000000
Simulation Instructions: 50000000
Number of CPUs: 1
LLC sets: 2048
LLC ways: 16
Off-chip DRAM Size: 4096 MB Channels: 1 Width: 64-bit Data Rate: 3200 MT/s

CPU 0 runs /home/tongjie/ChampSim-master/ipc1_public/spec_gcc_001.champsimtrace.xz
CPU 0 L1D next line prefetcher
Heartbeat CPU 0 instructions: 10000003 cycles: 3219011 heartbeat IPC: 3.10655 cumulative IPC: 3.10655 (Simulation time: 0 hr 0 min 22 sec) 
Heartbeat CPU 0 instructions: 20000002 cycles: 6463098 heartbeat IPC: 3.08253 cumulative IPC: 3.09449 (Simulation time: 0 hr 0 min 43 sec) 
Heartbeat CPU 0 instructions: 30000000 cycles: 9664650 heartbeat IPC: 3.12348 cumulative IPC: 3.1041 (Simulation time: 0 hr 1 min 5 sec) 
Heartbeat CPU 0 instructions: 40000001 cycles: 12904628 heartbeat IPC: 3.08644 cumulative IPC: 3.09966 (Simulation time: 0 hr 1 min 26 sec) 
Heartbeat CPU 0 instructions: 50000001 cycles: 16144564 heartbeat IPC: 3.08648 cumulative IPC: 3.09702 (Simulation time: 0 hr 1 min 48 sec) 

Warmup complete CPU 0 instructions: 50000001 cycles: 16144564 (Simulation time: 0 hr 1 min 48 sec) 

Heartbeat CPU 0 instructions: 60000000 cycles: 24280521 heartbeat IPC: 1.22911 cumulative IPC: 1.22911 (Simulation time: 0 hr 2 min 6 sec) 
Heartbeat CPU 0 instructions: 70000002 cycles: 32407316 heartbeat IPC: 1.2305 cumulative IPC: 1.2298 (Simulation time: 0 hr 2 min 26 sec) 
Heartbeat CPU 0 instructions: 80000000 cycles: 40137381 heartbeat IPC: 1.29365 cumulative IPC: 1.25037 (Simulation time: 0 hr 2 min 45 sec) 
Heartbeat CPU 0 instructions: 90000001 cycles: 48321554 heartbeat IPC: 1.22187 cumulative IPC: 1.24312 (Simulation time: 0 hr 3 min 4 sec) 
Heartbeat CPU 0 instructions: 100000000 cycles: 56804885 heartbeat IPC: 1.17878 cumulative IPC: 1.2297 (Simulation time: 0 hr 3 min 23 sec) 
Finished CPU 0 instructions: 50000000 cycles: 40660325 cumulative IPC: 1.2297 (Simulation time: 0 hr 3 min 23 sec) 

ChampSim completed all CPUs

Region of Interest Statistics

CPU 0 cumulative IPC: 1.2297 instructions: 50000000 cycles: 40660325
L1D TOTAL     ACCESS:   19498024  HIT:   18392813  MISS:    1105211
L1D LOAD      ACCESS:    7315248  HIT:    6837147  MISS:     478101
L1D RFO       ACCESS:    5124215  HIT:    5044726  MISS:      79489
L1D PREFETCH  ACCESS:    7058561  HIT:    6510940  MISS:     547621
L1D WRITEBACK ACCESS:          0  HIT:          0  MISS:          0
L1D PREFETCH  REQUESTED:   16422233  ISSUED:   16195591  USEFUL:     405359  USELESS:     404164
L1D AVERAGE MISS LATENCY: 24.9856 cycles
L1I TOTAL     ACCESS:    9399516  HIT:    9148998  MISS:     250518
L1I LOAD      ACCESS:    9315076  HIT:    9103674  MISS:     211402
L1I RFO       ACCESS:          0  HIT:          0  MISS:          0
L1I PREFETCH  ACCESS:      84440  HIT:      45324  MISS:      39116
L1I WRITEBACK ACCESS:          0  HIT:          0  MISS:          0
L1I PREFETCH  REQUESTED:     502682  ISSUED:     502682  USEFUL:      57329  USELESS:      37903
L1I AVERAGE MISS LATENCY: 22.7994 cycles
L2C TOTAL     ACCESS:    2422772  HIT:    2194009  MISS:     228763
L2C LOAD      ACCESS:     646106  HIT:     555471  MISS:      90635
L2C RFO       ACCESS:      75044  HIT:      37741  MISS:      37303
L2C PREFETCH  ACCESS:    1447863  HIT:    1347438  MISS:     100425
L2C WRITEBACK ACCESS:     253759  HIT:     253359  MISS:        400
L2C PREFETCH  REQUESTED:    2701102  ISSUED:    2698350  USEFUL:      41986  USELESS:     104720
L2C AVERAGE MISS LATENCY: 63.6761 cycles
LLC TOTAL     ACCESS:     579403  HIT:     509633  MISS:      69770
LLC LOAD      ACCESS:      90424  HIT:      79100  MISS:      11324
LLC RFO       ACCESS:      37303  HIT:      16911  MISS:      20392
LLC PREFETCH  ACCESS:     364941  HIT:     327973  MISS:      36968
LLC WRITEBACK ACCESS:      86735  HIT:      85649  MISS:       1086
LLC PREFETCH  REQUESTED:          0  ISSUED:          0  USEFUL:      48124  USELESS:      61967
LLC AVERAGE MISS LATENCY: 185.94 cycles
Major fault: 0 Minor fault: 6865
CPU 0 L1D next line prefetcher final stats

DRAM Statistics
 CHANNEL 0
 RQ ROW_BUFFER_HIT:      19013  ROW_BUFFER_MISS:      49671
 DBUS_CONGESTED:      35207
 WQ ROW_BUFFER_HIT:       4361  ROW_BUFFER_MISS:      22177  FULL:          0

 AVG_CONGESTED_CYCLE: 6

CPU 0 Branch Prediction Accuracy: 95.8872% MPKI: 9.67286 Average ROB Occupancy at Mispredict: 60.1448

Branch types
NOT_BRANCH: 38240102 76.4802%
BRANCH_DIRECT_JUMP: 653296 1.30659%
BRANCH_INDIRECT: 37098 0.074196%
BRANCH_CONDITIONAL: 8897819 17.7956%
BRANCH_DIRECT_CALL: 992620 1.98524%
BRANCH_INDIRECT_CALL: 93046 0.186092%
BRANCH_RETURN: 1085674 2.17135%
BRANCH_OTHER: 0 0%

